#	Name: ASD03331236
#	Creating user name:	WinNT
#	Creation time:	15. 06. 2019 20:38

#	Modifying user name:	WinNT
#	Modification time:	15. 06. 2019 20:38

#	Program:	/corina/corina34_cracker 3.40 0067  02.08.2006

@<TRIPOS>MOLECULE
ASD03331236
  48   51    0    0    0
SMALL
NO_CHARGES


@<TRIPOS>ATOM
   1 N1            -0.0486     1.4517     0.2843 N.am    
   2 C2            -0.0347     0.0102     0.5760 C.3     
   3 C3             0.7216    -0.7066    -0.5475 C.3     
   4 N4             2.0464    -0.0931    -0.7106 N.3     
   5 C5             1.9356     1.3118    -1.1253 C.3     
   6 C6             1.2290     2.1113    -0.0254 C.3     
   7 C7            -1.2021     2.1486     0.2949 C.2     
   8 O8            -2.2600     1.5708     0.4547 O.2     
   9 N9            -1.1831     3.4859     0.1284 N.am    
  10 C10           -2.3862     4.1969     0.0329 C.ar    
  11 C11           -3.5642     3.5322    -0.2768 C.ar    
  12 C12           -4.7496     4.2362    -0.3705 C.ar    
  13 C13           -4.7640     5.6018    -0.1561 C.ar    
  14 C14           -3.5924     6.2690     0.1525 C.ar    
  15 C15           -2.4038     5.5700     0.2539 C.ar    
  16 C16            2.8679    -0.8584    -1.6579 C.3     
  17 C17            4.1136    -0.0771    -1.9878 C.ar    
  18 C18            5.2633    -0.2409    -1.2188 C.ar    
  19 N19            6.3654     0.4211    -1.4759 N.ar    
  20 C20            6.4350     1.2866    -2.4919 C.ar    
  21 C21            5.3012     1.5010    -3.3146 C.ar    
  22 C22            4.1180     0.7883    -3.0449 C.ar    
  23 C23            5.3794     2.4121    -4.3804 C.ar    
  24 C24            7.6194     1.9943    -2.7627 C.ar    
  25 C25            7.6600     2.8692    -3.8040 C.ar    
  26 C26            6.5435     3.0790    -4.6112 C.ar    
  27 F27           -1.2604     6.2205     0.5615 F       
  28 H28            0.4685    -0.1661     1.5267 H       
  29 H29           -1.0575    -0.3633     0.6252 H       
  30 H30            0.8375    -1.7602    -0.2934 H       
  31 H31            0.1617    -0.6160    -1.4783 H       
  32 H32            2.9319     1.7220    -1.2901 H       
  33 H33            1.3588     1.3743    -2.0480 H       
  34 H34            1.0417     3.1270    -0.3739 H       
  35 H35            1.8537     2.1369     0.8675 H       
  36 H36           -0.3363     3.9559     0.0747 H       
  37 H37           -3.5545     2.4654    -0.4450 H       
  38 H38           -5.6663     3.7187    -0.6119 H       
  39 H39           -5.6922     6.1490    -0.2300 H       
  40 H40           -3.6068     7.3360     0.3187 H       
  41 H41            3.1454    -1.8125    -1.2099 H       
  42 H42            2.2989    -1.0372    -2.5703 H       
  43 H43            5.2464    -0.9313    -0.3885 H       
  44 H44            3.2357     0.9274    -3.6520 H       
  45 H45            4.5211     2.5823    -5.0135 H       
  46 H46            8.4935     1.8442    -2.1464 H       
  47 H47            8.5721     3.4106    -4.0077 H       
  48 H48            6.6030     3.7788    -5.4317 H       
@<TRIPOS>BOND
   1    1    2 1
   2    1    6 1
   3    1    7 am
   4    2    3 1
   5    2   28 1
   6    2   29 1
   7    3    4 1
   8    3   30 1
   9    3   31 1
  10    4    5 1
  11    4   16 1
  12    5    6 1
  13    5   32 1
  14    5   33 1
  15    6   34 1
  16    6   35 1
  17    7    8 2
  18    7    9 am
  19    9   10 1
  20    9   36 1
  21   10   11 ar
  22   10   15 ar
  23   11   12 ar
  24   11   37 1
  25   12   13 ar
  26   12   38 1
  27   13   14 ar
  28   13   39 1
  29   14   15 ar
  30   14   40 1
  31   15   27 1
  32   16   17 1
  33   16   41 1
  34   16   42 1
  35   17   18 ar
  36   17   22 ar
  37   18   19 ar
  38   18   43 1
  39   19   20 ar
  40   20   21 ar
  41   20   24 ar
  42   21   22 ar
  43   21   23 ar
  44   22   44 1
  45   23   26 ar
  46   23   45 1
  47   24   25 ar
  48   24   46 1
  49   25   26 ar
  50   25   47 1
  51   26   48 1

#	End of record

