#	Name: ASD01028041
#	Creating user name:	WinNT
#	Creation time:	15. 06. 2019 18:56

#	Modifying user name:	WinNT
#	Modification time:	15. 06. 2019 18:56

#	Program:	/corina/corina34_cracker 3.40 0067  02.08.2006

@<TRIPOS>MOLECULE
ASD01028041
  80   84    0    0    0
SMALL
NO_CHARGES


@<TRIPOS>ATOM
   1 C1            -0.0187     1.5248     0.0104 C.3     
   2 C2             0.0021    -0.0041     0.0020 C.3     
   3 C3            -1.3967    -0.5368     0.3177 C.3     
   4 C4             2.0805     1.7983     1.3385 C.3     
   5 C5             1.4053     2.0822    -0.0002 C.3     
   6 N6             2.4984     3.0760     1.9743 N.3     
   7 N7             0.2528     1.8255     4.4004 N.pl3   
   8 C8             0.9758     2.8861     4.9808 C.ar    
   9 C9             1.5023     3.8350     4.1021 C.ar    
  10 C10            1.3103     3.6779     2.6205 C.3     
  11 C11            1.2091     2.9972     6.3417 C.ar    
  12 C12            1.8945     4.1027     6.8341 C.ar    
  13 C13            2.3657     5.0729     5.9599 C.ar    
  14 C14            2.1752     4.9336     4.6006 C.ar    
  15 O15           -1.3227    -1.6365     1.2256 O.3     
  16 C16           -1.6059    -1.3874     2.5307 C.ar    
  17 C17           -0.9772    -0.3366     3.1428 C.ar    
  18 C18           -1.2508    -0.0459     4.4820 C.ar    
  19 C19           -0.6272     1.0488     5.1467 C.ar    
  20 N20           -0.9383     1.2632     6.4060 N.ar    
  21 O21            0.9073     2.1767     7.3861 O.3     
  22 C22            1.2749     2.8495     8.5935 C.3     
  23 O23            1.9844     4.0235     8.1901 O.3     
  24 C24           -2.5158    -2.1828     3.2386 C.ar    
  25 C25           -2.7966    -1.9184     4.5634 C.ar    
  26 C26           -2.1690    -0.8433     5.2054 C.ar    
  27 N27           -2.4053    -0.5339     6.4900 N.ar    
  28 C28           -1.8009     0.4877     7.0498 C.ar    
  29 O29           -3.1285    -3.2226     2.6149 O.3     
  30 C30           -4.0457    -3.9955     3.3916 C.3     
  31 C31            3.4924     2.7222     3.0233 C.3     
  32 C32           -4.6315    -5.1130     2.5262 C.3     
  33 C33           -5.6135    -5.9406     3.3577 C.3     
  34 N34           -6.1759    -7.0135     2.5268 N.3     
  35 C35           -7.1255    -7.8307     3.2939 C.3     
  36 C36           -7.6888    -8.9349     2.3970 C.3     
  37 C37           -8.6778    -9.7860     3.1960 C.3     
  38 S38           -9.3457   -11.0951     2.1326 S.o2    
  39 O39          -10.1162   -10.4923     1.1020 O.2     
  40 O40           -8.2883   -11.9775     1.7826 O.2     
  41 C41          -10.4695   -11.9599     3.2639 C.3     
  42 H42           -0.5497     1.8851    -0.8715 H       
  43 H43           -0.5325     1.8745     0.9062 H       
  44 H44            0.3110    -0.3587    -0.9823 H       
  45 H45            0.7043    -0.3672     0.7520 H       
  46 H46           -1.9982     0.2570     0.7592 H       
  47 H47           -1.8694    -0.8708    -0.6077 H       
  48 H48            1.3974     1.2827     2.0034 H       
  49 H49            2.9718     1.1937     1.1793 H       
  50 H50            1.9728     1.6124    -0.8045 H       
  51 H51            1.3703     3.1592    -0.1691 H       
  52 H52            0.3738     1.6291     3.4529 H       
  53 H53            1.1519     4.6653     2.1750 H       
  54 H54            0.4414     3.0604     2.4120 H       
  55 H55            2.8833     5.9387     6.3461 H       
  56 H56            2.5511     5.6855     3.9217 H       
  57 H57           -0.2718     0.2591     2.5835 H       
  58 H58            0.3839     3.1266     9.1571 H       
  59 H59            1.9176     2.2096     9.1980 H       
  60 H60           -3.4970    -2.5390     5.1031 H       
  61 H61           -2.0180     0.7066     8.0849 H       
  62 H62           -3.5233    -4.4315     4.2432 H       
  63 H63           -4.8504    -3.3531     3.7491 H       
  64 H64            4.3434     2.2202     2.5629 H       
  65 H65            3.8324     3.6296     3.5225 H       
  66 H66            3.0297     2.0576     3.7529 H       
  67 H67           -5.1538    -4.6771     1.6746 H       
  68 H68           -3.8267    -5.7554     2.1687 H       
  69 H69           -5.0911    -6.3765     4.2093 H       
  70 H70           -6.4183    -5.2982     3.7152 H       
  71 H71           -6.6100    -6.6382     1.6968 H       
  72 H72           -6.6136    -8.2797     4.1450 H       
  73 H73           -7.9407    -7.2013     3.6509 H       
  74 H74           -8.2007    -8.4858     1.5459 H       
  75 H75           -6.8736    -9.5642     2.0400 H       
  76 H76           -8.1659   -10.2350     4.0471 H       
  77 H77           -9.4930    -9.1566     3.5530 H       
  78 H78          -11.2320   -11.2666     3.6189 H       
  79 H79          -10.9469   -12.7877     2.7394 H       
  80 H80           -9.9049   -12.3450     4.1130 H       
@<TRIPOS>BOND
   1    1    2 1
   2    1    5 1
   3    1   42 1
   4    1   43 1
   5    2    3 1
   6    2   44 1
   7    2   45 1
   8    3   15 1
   9    3   46 1
  10    3   47 1
  11    4    5 1
  12    4    6 1
  13    4   48 1
  14    4   49 1
  15    5   50 1
  16    5   51 1
  17    6   31 1
  18    6   10 1
  19    7    8 1
  20    7   19 1
  21    7   52 1
  22    8    9 ar
  23    8   11 ar
  24    9   10 1
  25    9   14 ar
  26   10   53 1
  27   10   54 1
  28   11   12 ar
  29   11   21 1
  30   12   13 ar
  31   12   23 1
  32   13   14 ar
  33   13   55 1
  34   14   56 1
  35   15   16 1
  36   16   17 ar
  37   16   24 ar
  38   17   18 ar
  39   17   57 1
  40   18   19 ar
  41   18   26 ar
  42   19   20 ar
  43   20   28 ar
  44   21   22 1
  45   22   23 1
  46   22   58 1
  47   22   59 1
  48   24   25 ar
  49   24   29 1
  50   25   26 ar
  51   25   60 1
  52   26   27 ar
  53   27   28 ar
  54   28   61 1
  55   29   30 1
  56   30   32 1
  57   30   62 1
  58   30   63 1
  59   31   64 1
  60   31   65 1
  61   31   66 1
  62   32   33 1
  63   32   67 1
  64   32   68 1
  65   33   34 1
  66   33   69 1
  67   33   70 1
  68   34   35 1
  69   34   71 1
  70   35   36 1
  71   35   72 1
  72   35   73 1
  73   36   37 1
  74   36   74 1
  75   36   75 1
  76   37   38 1
  77   37   76 1
  78   37   77 1
  79   38   39 2
  80   38   40 2
  81   38   41 1
  82   41   78 1
  83   41   79 1
  84   41   80 1

#	End of record

