#	Name: ASD07980004
#	Creating user name:	WinNT
#	Creation time:	15. 06. 2019 21:14

#	Modifying user name:	WinNT
#	Modification time:	15. 06. 2019 21:14

#	Program:	/corina/corina34_cracker 3.40 0067  02.08.2006

@<TRIPOS>MOLECULE
ASD07980004
  12   11    0    0    0
SMALL
NO_CHARGES


@<TRIPOS>ATOM
   1 C1            -0.0173     1.4248     0.0099 C.3     
   2 C2             0.6518    -0.5703    -1.1379 C.3     
   3 C3             0.6131    -2.0967    -1.0411 C.3     
   4 O4             0.0021    -0.0041     0.0020 O.3     
   5 F5             1.2952     1.9090    -0.0001 F       
   6 F6            -0.6939     1.8882    -1.1235 F       
   7 F7             1.9821    -0.1392    -1.1783 F       
   8 F8            -0.7172    -2.5278    -1.0006 F       
   9 F9             1.2492    -2.6510    -2.1570 F       
  10 F10            1.2719    -2.5070     0.1229 F       
  11 H11           -0.5275     1.7763     0.9067 H       
  12 H12            0.1385    -0.2506    -2.0447 H       
@<TRIPOS>BOND
   1    1    4 1
   2    1    5 1
   3    1    6 1
   4    1   11 1
   5    2    3 1
   6    2    4 1
   7    2    7 1
   8    2   12 1
   9    3    8 1
  10    3    9 1
  11    3   10 1

#	End of record

