#	Name: ASD05882001
#	Creating user name:	WinNT
#	Creation time:	15. 06. 2019 21:04

#	Modifying user name:	WinNT
#	Modification time:	15. 06. 2019 21:04

#	Program:	/corina/corina34_cracker 3.40 0067  02.08.2006

@<TRIPOS>MOLECULE
ASD05882001
  52   55    0    0    0
SMALL
NO_CHARGES


@<TRIPOS>ATOM
   1 C1             0.8184     1.6466    -1.3089 C.3     
   2 C2             0.6749     0.1242    -1.3709 C.3     
   3 C3             2.0454    -0.5221    -1.1508 C.3     
   4 C4             2.6072    -0.0625     0.1974 C.3     
   5 C5             2.6947     1.4653     0.2139 C.3     
   6 N6             1.3585     2.0357     0.0000 N.3     
   7 C7             1.9007    -2.0222    -1.1511 C.2     
   8 O8             2.9798    -2.8006    -0.9739 O.3     
   9 O9             0.8134    -2.5242    -1.3108 O.2     
  10 C10            1.3790     3.4137     0.1388 C.ar    
  11 N11            2.0770     4.1466    -0.7175 N.ar    
  12 C12            2.1254     5.4593    -0.6244 C.ar    
  13 C13            1.4353     6.1242     0.3902 C.ar    
  14 C14            0.6878     5.3737     1.3114 C.ar    
  15 C15            0.6603     4.0115     1.1743 C.ar    
  16 Cl16          -0.2487     3.0369     2.2867 Cl      
  17 C17            1.4909     7.5945     0.4934 C.2     
  18 N18            2.2118     8.3057    -0.3959 N.am    
  19 O19            0.8862     8.1650     1.3809 O.2     
  20 C20            2.2642     9.6898    -0.2988 C.2     
  21 N21            2.9231    10.4727    -1.0954 N.2     
  22 C22            2.8584    11.7738    -0.8499 C.2     
  23 C23            2.1071    12.1240     0.2093 C.2     
  24 S24            1.4400    10.6564     0.9210 S.3     
  25 C25            3.5660    12.7743    -1.6853 C.ar    
  26 C26            3.4671    14.1314    -1.3858 C.ar    
  27 C27            4.1282    15.0584    -2.1664 C.ar    
  28 C28            4.8883    14.6434    -3.2448 C.ar    
  29 C29            4.9916    13.2978    -3.5487 C.ar    
  30 C30            4.3387    12.3597    -2.7716 C.ar    
  31 F31            4.4397    11.0457    -3.0686 F       
  32 C32            5.8218    12.8538    -4.7253 C.3     
  33 F33            6.3838    13.9732    -5.3485 F       
  34 F34            6.8421    12.0052    -4.2824 F       
  35 F35            5.0102    12.1707    -5.6374 F       
  36 H36            1.4959     1.9798    -2.0950 H       
  37 H37           -0.1582     2.1095    -1.4510 H       
  38 H38           -0.0133    -0.2084    -0.5938 H       
  39 H39            0.2887    -0.1654    -2.3481 H       
  40 H40            2.7229    -0.2205    -1.9497 H       
  41 H41            1.9494    -0.3980     0.9992 H       
  42 H42            3.6015    -0.4855     0.3406 H       
  43 H43            3.0809     1.7965     1.1779 H       
  44 H44            3.3634     1.7994    -0.5793 H       
  45 H45            2.8373    -3.7570    -0.9818 H       
  46 H46            2.7041     6.0260    -1.3388 H       
  47 H47            0.1435     5.8598     2.1076 H       
  48 H48            2.6941     7.8506    -1.1038 H       
  49 H49            1.9383    13.1313     0.5606 H       
  50 H50            2.8737    14.4576    -0.5444 H       
  51 H51            4.0513    16.1104    -1.9347 H       
  52 H52            5.4032    15.3729    -3.8523 H       
@<TRIPOS>BOND
   1    1    2 1
   2    1    6 1
   3    1   36 1
   4    1   37 1
   5    2    3 1
   6    2   38 1
   7    2   39 1
   8    3    4 1
   9    3    7 1
  10    3   40 1
  11    4    5 1
  12    4   41 1
  13    4   42 1
  14    5    6 1
  15    5   43 1
  16    5   44 1
  17    6   10 1
  18    7    8 1
  19    7    9 2
  20    8   45 1
  21   10   11 ar
  22   10   15 ar
  23   11   12 ar
  24   12   13 ar
  25   12   46 1
  26   13   14 ar
  27   13   17 1
  28   14   15 ar
  29   14   47 1
  30   15   16 1
  31   17   18 am
  32   17   19 2
  33   18   20 1
  34   18   48 1
  35   20   21 2
  36   20   24 1
  37   21   22 1
  38   22   23 2
  39   22   25 1
  40   23   24 1
  41   23   49 1
  42   25   26 ar
  43   25   30 ar
  44   26   27 ar
  45   26   50 1
  46   27   28 ar
  47   27   51 1
  48   28   29 ar
  49   28   52 1
  50   29   30 ar
  51   29   32 1
  52   30   31 1
  53   32   33 1
  54   32   34 1
  55   32   35 1

#	End of record

