#	Name: ASD01883574
#	Creating user name:	WinNT
#	Creation time:	15. 06. 2019 19:46

#	Modifying user name:	WinNT
#	Modification time:	15. 06. 2019 19:46

#	Program:	/corina/corina34_cracker 3.40 0067  02.08.2006

@<TRIPOS>MOLECULE
ASD01883574
  51   54    0    0    0
SMALL
NO_CHARGES


@<TRIPOS>ATOM
   1 C1            -2.0647     2.1204     0.1323 C.2     
   2 C2            -2.5165     0.8544     0.2569 C.2     
   3 N3            -1.7175    -0.1276     0.7517 N.am    
   4 C4            -0.4528     0.1293     1.1332 C.2     
   5 C5             0.0656     1.4266     1.0253 C.2     
   6 C6            -0.7424     2.4351     0.5205 C.2     
   7 O7             0.2446    -0.7703     1.5750 O.2     
   8 C8            -0.2288     3.8178     0.3914 C.ar    
   9 C9            -0.0847     4.3950    -0.8708 C.ar    
  10 C10            0.3940     5.6841    -0.9871 C.ar    
  11 C11            0.7326     6.4065     0.1524 C.ar    
  12 C12            0.5897     5.8333     1.4092 C.ar    
  13 C13            0.1068     4.5482     1.5321 C.ar    
  14 O14            1.2044     7.6750     0.0356 O.3     
  15 C15            1.6250     8.3046     1.1620 C.ar    
  16 C16            2.9441     8.1896     1.5943 C.ar    
  17 C17            3.3326     8.8452     2.7445 C.ar    
  18 N18            2.4724     9.5731     3.4312 N.ar    
  19 C19            1.2149     9.7063     3.0539 C.ar    
  20 C20            0.7501     9.0871     1.9120 C.ar    
  21 C21           -2.2427    -1.4899     0.8723 C.3     
  22 C22           -1.9634    -2.2603    -0.4197 C.3     
  23 C23            0.2763    10.5500     3.8775 C.3     
  24 C24            4.7569     8.7280     3.2227 C.3     
  25 C25           -2.3320    -3.7449    -0.4507 C.3     
  26 C26           -3.1687    -2.7324    -1.2353 C.3     
  27 F27            0.5342     6.2447    -2.2083 F       
  28 C28            1.4805     1.7222     1.4514 C.3     
  29 F29            1.5104     1.9732     2.8274 F       
  30 F30            2.2946     0.6223     1.1603 F       
  31 F31            1.9501     2.8454     0.7622 F       
  32 H32           -2.7098     2.8892    -0.2667 H       
  33 H33           -3.5276     0.6185    -0.0405 H       
  34 H34           -0.3470     3.8336    -1.7554 H       
  35 H35            0.8535     6.3969     2.2920 H       
  36 H36           -0.0038     4.1038     2.5101 H       
  37 H37            3.6530     7.5951     1.0371 H       
  38 H38           -0.2802     9.2004     1.6085 H       
  39 H39           -1.7571    -1.9938     1.7080 H       
  40 H40           -3.3179    -1.4507     1.0467 H       
  41 H41           -1.0739    -1.9511    -0.9686 H       
  42 H42            0.3044    11.5793     3.5198 H       
  43 H43           -0.7377    10.1609     3.7853 H       
  44 H44            0.5834    10.5201     4.9229 H       
  45 H45            5.3550     9.5253     2.7815 H       
  46 H46            4.7835     8.8126     4.3091 H       
  47 H47            5.1623     7.7615     2.9235 H       
  48 H48           -1.6852    -4.4123    -1.0203 H       
  49 H49           -2.7735    -4.1728     0.4494 H       
  50 H50           -4.1607    -2.4942    -0.8514 H       
  51 H51           -3.0724    -2.7337    -2.3211 H       
@<TRIPOS>BOND
   1    1    2 2
   2    1    6 1
   3    1   32 1
   4    2    3 1
   5    2   33 1
   6    3    4 am
   7    3   21 1
   8    4    5 1
   9    4    7 2
  10    5    6 2
  11    5   28 1
  12    6    8 1
  13    8    9 ar
  14    8   13 ar
  15    9   10 ar
  16    9   34 1
  17   10   11 ar
  18   10   27 1
  19   11   12 ar
  20   11   14 1
  21   12   13 ar
  22   12   35 1
  23   13   36 1
  24   14   15 1
  25   15   16 ar
  26   15   20 ar
  27   16   17 ar
  28   16   37 1
  29   17   18 ar
  30   17   24 1
  31   18   19 ar
  32   19   20 ar
  33   19   23 1
  34   20   38 1
  35   21   22 1
  36   21   39 1
  37   21   40 1
  38   22   25 1
  39   22   26 1
  40   22   41 1
  41   23   42 1
  42   23   43 1
  43   23   44 1
  44   24   45 1
  45   24   46 1
  46   24   47 1
  47   25   26 1
  48   25   48 1
  49   25   49 1
  50   26   50 1
  51   26   51 1
  52   28   29 1
  53   28   30 1
  54   28   31 1

#	End of record

