#	Name: ASD03330225
#	Creating user name:	WinNT
#	Creation time:	15. 06. 2019 20:36

#	Modifying user name:	WinNT
#	Modification time:	15. 06. 2019 20:36

#	Program:	/corina/corina34_cracker 3.40 0067  02.08.2006

@<TRIPOS>MOLECULE
ASD03330225
  57   59    0    0    0
SMALL
NO_CHARGES


@<TRIPOS>ATOM
   1 C1            -0.6652     0.5718     0.2349 C.3     
   2 N2            -0.5931    -0.8834     0.0416 N.3     
   3 C3            -0.0219    -1.2172    -1.2757 C.3     
   4 C4             1.2518    -0.4301    -1.4441 C.2     
   5 N5             1.5899     0.6343    -0.6699 N.pl3   
   6 C6             0.7471     1.1424     0.4168 C.3     
   7 C7             2.2538    -0.6075    -2.3386 C.2     
   8 N8             3.1895     0.3499    -2.0940 N.2     
   9 C9             2.7887     1.0887    -1.0957 C.2     
  10 C10            3.5404     2.2577    -0.5130 C.3     
  11 C11            3.1372     3.5212    -1.2286 C.ar    
  12 C12            2.3189    -1.6454    -3.3822 C.2     
  13 O13            1.4129    -2.4484    -3.4986 O.2     
  14 O14            5.7399    -2.1837    -5.3282 O.2     
  15 C15            4.8873    -3.0018    -5.6018 C.2     
  16 C16            3.4471    -2.7370    -5.2457 C.3     
  17 N17            3.3824    -1.7050    -4.2079 N.am    
  18 C18            2.6941    -2.2584    -6.4886 C.3     
  19 C19            2.7605    -3.3368    -7.5719 C.3     
  20 C20            1.2323    -1.9882    -6.1267 C.3     
  21 C21            3.3367    -0.9715    -7.0101 C.3     
  22 N22            5.2279    -4.1476    -6.2242 N.am    
  23 C23            6.6129    -4.3671    -6.6484 C.3     
  24 C24            2.0730     4.2701    -0.7622 C.ar    
  25 C25            3.8351     3.9343    -2.3480 C.ar    
  26 C26            3.4653     5.0933    -3.0043 C.ar    
  27 C27            2.3973     5.8389    -2.5416 C.ar    
  28 C28            1.7031     5.4290    -1.4186 C.ar    
  29 H29           -1.1318     1.0305    -0.6369 H       
  30 H30           -1.2613     0.7905     1.1208 H       
  31 H31           -0.0691    -1.3213     0.7844 H       
  32 H32            0.1954    -2.2842    -1.3233 H       
  33 H33           -0.7275    -0.9488    -2.0619 H       
  34 H34            0.7118     2.2311     0.3765 H       
  35 H35            1.1522     0.8223     1.3767 H       
  36 H36            3.3043     2.3494     0.5472 H       
  37 H37            4.6117     2.0975    -0.6342 H       
  38 H38            2.9900    -3.6544    -4.8748 H       
  39 H39            4.1050    -1.0646    -4.1151 H       
  40 H40            2.2887    -4.2488    -7.2060 H       
  41 H41            2.2375    -2.9894    -8.4629 H       
  42 H42            3.8025    -3.5405    -7.8185 H       
  43 H43            1.1851    -1.2199    -5.3550 H       
  44 H44            0.6959    -1.6472    -7.0122 H       
  45 H45            0.7745    -2.9050    -5.7552 H       
  46 H46            4.3781    -1.1639    -7.2679 H       
  47 H47            2.8002    -0.6305    -7.8955 H       
  48 H48            3.2894    -0.2032    -6.2383 H       
  49 H49            4.5561    -4.8270    -6.3913 H       
  50 H50            7.2688    -4.3350    -5.7784 H       
  51 H51            6.6954    -5.3415    -7.1299 H       
  52 H52            6.9050    -3.5880    -7.3526 H       
  53 H53            1.5303     3.9495     0.1148 H       
  54 H54            4.6696     3.3517    -2.7095 H       
  55 H55            4.0111     5.4164    -3.8785 H       
  56 H56            2.1086     6.7446    -3.0542 H       
  57 H57            0.8687     6.0116    -1.0570 H       
@<TRIPOS>BOND
   1    1    2 1
   2    1    6 1
   3    1   29 1
   4    1   30 1
   5    2    3 1
   6    2   31 1
   7    3    4 1
   8    3   32 1
   9    3   33 1
  10    4    5 1
  11    4    7 2
  12    5    6 1
  13    5    9 1
  14    6   34 1
  15    6   35 1
  16    7    8 1
  17    7   12 1
  18    8    9 2
  19    9   10 1
  20   10   11 1
  21   10   36 1
  22   10   37 1
  23   11   24 ar
  24   11   25 ar
  25   12   13 2
  26   12   17 am
  27   14   15 2
  28   15   22 am
  29   15   16 1
  30   16   17 1
  31   16   18 1
  32   16   38 1
  33   17   39 1
  34   18   19 1
  35   18   20 1
  36   18   21 1
  37   19   40 1
  38   19   41 1
  39   19   42 1
  40   20   43 1
  41   20   44 1
  42   20   45 1
  43   21   46 1
  44   21   47 1
  45   21   48 1
  46   22   23 1
  47   22   49 1
  48   23   50 1
  49   23   51 1
  50   23   52 1
  51   24   28 ar
  52   24   53 1
  53   25   26 ar
  54   25   54 1
  55   26   27 ar
  56   26   55 1
  57   27   28 ar
  58   27   56 1
  59   28   57 1

#	End of record

