#	Name: ASD01914029
#	Creating user name:	WinNT
#	Creation time:	15. 06. 2019 20:02

#	Modifying user name:	WinNT
#	Modification time:	15. 06. 2019 20:02

#	Program:	/corina/corina34_cracker 3.40 0067  02.08.2006

@<TRIPOS>MOLECULE
ASD01914029
  49   51    0    0    0
SMALL
NO_CHARGES


@<TRIPOS>ATOM
   1 C1            -0.0167     1.3779     0.0096 C.ar    
   2 C2             0.0021    -0.0041     0.0020 C.ar    
   3 C3             1.2099    -0.6820    -0.0132 C.ar    
   4 C4             2.3810     1.4110    -0.0131 C.ar    
   5 C5             1.1694     2.0866     0.0021 C.ar    
   6 O6             3.5481     2.1071    -0.0210 O.3     
   7 C7             4.7574     1.3459    -0.0367 C.3     
   8 C8             5.9394     2.2807    -0.0434 C.ar    
   9 N9             7.1608     1.7823    -0.0579 N.ar    
  10 C10            8.2272     2.5549    -0.0644 C.ar    
  11 C11            8.0971     3.9440    -0.0556 C.ar    
  12 C12            6.8134     4.5029    -0.0403 C.ar    
  13 C13            5.7258     3.6477    -0.0401 C.ar    
  14 C14            9.2945     4.8111    -0.0619 C.2     
  15 N15           10.5248     4.2611    -0.0763 N.am    
  16 O16            9.1693     6.0202    -0.0542 O.2     
  17 C17           11.7113     5.1204    -0.0825 C.3     
  18 C18            2.3995     0.0240    -0.0208 C.ar    
  19 C19           12.8968     4.3574     0.5121 C.3     
  20 C20           12.0374     5.5292    -1.5204 C.3     
  21 C21           14.1384     5.2545     0.5063 C.3     
  22 C22           15.2983     4.5113     1.1742 C.3     
  23 O23           14.9232     4.1408     2.5024 O.3     
  24 C24           13.7967     3.2639     2.5673 C.3     
  25 C25           12.5764     3.9569     1.9554 C.3     
  26 F26            1.2262    -2.0329    -0.0202 F       
  27 H27           -0.9596     1.9044     0.0169 H       
  28 H28           -0.9262    -0.5561     0.0083 H       
  29 H29            1.1533     3.1665     0.0084 H       
  30 H30            4.7998     0.7130     0.8498 H       
  31 H31            4.7825     0.7220    -0.9301 H       
  32 H32            9.2110     2.1094    -0.0762 H       
  33 H33            6.6757     5.5741    -0.0331 H       
  34 H34            4.7208     4.0429    -0.0285 H       
  35 H35           10.6247     3.2963    -0.0824 H       
  36 H36           11.5173     6.0121     0.5136 H       
  37 H37            3.3416    -0.5040    -0.0323 H       
  38 H38           13.0898     3.4637    -0.0814 H       
  39 H39           11.1929     6.0728    -1.9440 H       
  40 H40           12.9202     6.1685    -1.5250 H       
  41 H41           12.2314     4.6375    -2.1165 H       
  42 H42           14.4062     5.4992    -0.5215 H       
  43 H43           13.9279     6.1713     1.0570 H       
  44 H44           15.5348     3.6155     0.6000 H       
  45 H45           16.1728     5.1609     1.2113 H       
  46 H46           14.0135     2.3518     2.0113 H       
  47 H47           13.5894     3.0149     3.6081 H       
  48 H48           12.3344     4.8475     2.5354 H       
  49 H49           11.7271     3.2737     1.9639 H       
@<TRIPOS>BOND
   1    1    2 ar
   2    1    5 ar
   3    1   27 1
   4    2    3 ar
   5    2   28 1
   6    3   18 ar
   7    3   26 1
   8    4    5 ar
   9    4    6 1
  10    4   18 ar
  11    5   29 1
  12    6    7 1
  13    7    8 1
  14    7   30 1
  15    7   31 1
  16    8    9 ar
  17    8   13 ar
  18    9   10 ar
  19   10   11 ar
  20   10   32 1
  21   11   12 ar
  22   11   14 1
  23   12   13 ar
  24   12   33 1
  25   13   34 1
  26   14   15 am
  27   14   16 2
  28   15   17 1
  29   15   35 1
  30   17   19 1
  31   17   20 1
  32   17   36 1
  33   18   37 1
  34   19   21 1
  35   19   25 1
  36   19   38 1
  37   20   39 1
  38   20   40 1
  39   20   41 1
  40   21   22 1
  41   21   42 1
  42   21   43 1
  43   22   23 1
  44   22   44 1
  45   22   45 1
  46   23   24 1
  47   24   25 1
  48   24   46 1
  49   24   47 1
  50   25   48 1
  51   25   49 1

#	End of record

