#	Name: ASD01151088
#	Creating user name:	WinNT
#	Creation time:	15. 06. 2019 19:05

#	Modifying user name:	WinNT
#	Modification time:	15. 06. 2019 19:05

#	Program:	/corina/corina34_cracker 3.40 0067  02.08.2006

@<TRIPOS>MOLECULE
ASD01151088
  46   46    0    0    0
SMALL
NO_CHARGES


@<TRIPOS>ATOM
   1 C1            -0.0187     1.5258     0.0104 C.3     
   2 C2             0.0021    -0.0041     0.0020 C.3     
   3 C3             0.7421    -0.5109     1.2415 C.3     
   4 C4            -1.4333    -0.5336     0.0129 C.3     
   5 C5             0.7074    -0.4901    -1.2379 C.ar    
   6 C6             1.2102     0.4106    -2.1333 C.ar    
   7 C7             1.8664    -0.0433    -3.2866 C.ar    
   8 C8             2.4085     0.9181    -4.2511 C.2     
   9 C9             3.0440     0.4753    -5.3681 C.2     
  10 C10            3.5655     1.4000    -6.2957 C.2     
  11 O11            3.4468     2.5942    -6.0965 O.2     
  12 C12            4.2625     0.9144    -7.5207 C.2     
  13 O13            4.7602     1.7971    -8.4063 O.3     
  14 O14            4.3809    -0.2764    -7.7194 O.2     
  15 C15            2.0022    -1.4205    -3.5133 C.ar    
  16 C16            1.4953    -2.3117    -2.6107 C.ar    
  17 C17            0.8502    -1.8553    -1.4654 C.ar    
  18 O18            0.3540    -2.7451    -0.5695 O.3     
  19 C19            1.6399    -3.7920    -2.8531 C.3     
  20 C20            2.3862    -4.0229    -4.1686 C.3     
  21 C21            2.4270    -4.4226    -1.7026 C.3     
  22 C22            0.2532    -4.4334    -2.9341 C.3     
  23 H23            1.0039     1.9031     0.0027 H       
  24 H24           -0.5459     1.8868    -0.8726 H       
  25 H25           -0.5289     1.8773     0.9072 H       
  26 H26            0.2319    -0.1594     2.1383 H       
  27 H27            0.7568    -1.6008     1.2356 H       
  28 H28            1.7647    -0.1336     1.2338 H       
  29 H29           -1.9605    -0.1726    -0.8702 H       
  30 H30           -1.4185    -1.6235     0.0069 H       
  31 H31           -1.9435    -0.1821     0.9097 H       
  32 H32            1.1024     1.4700    -1.9536 H       
  33 H33            2.3031     1.9783    -4.0742 H       
  34 H34            3.1495    -0.5849    -5.5449 H       
  35 H35            5.2038     1.4347    -9.1854 H       
  36 H36            2.5062    -1.7759    -4.3999 H       
  37 H37           -0.5591    -3.0112    -0.7439 H       
  38 H38            3.3742    -3.5660    -4.1108 H       
  39 H39            2.4908    -5.0936    -4.3438 H       
  40 H40            1.8255    -3.5737    -4.9882 H       
  41 H41            1.8953    -4.2581    -0.7654 H       
  42 H42            2.5316    -5.4933    -1.8779 H       
  43 H43            3.4150    -3.9657    -1.6449 H       
  44 H44           -0.3076    -3.9841    -3.7537 H       
  45 H45            0.3578    -5.5041    -3.1094 H       
  46 H46           -0.2786    -4.2689    -1.9969 H       
@<TRIPOS>BOND
   1    1    2 1
   2    1   23 1
   3    1   24 1
   4    1   25 1
   5    2    3 1
   6    2    4 1
   7    2    5 1
   8    3   26 1
   9    3   27 1
  10    3   28 1
  11    4   29 1
  12    4   30 1
  13    4   31 1
  14    5   17 ar
  15    5    6 ar
  16    6    7 ar
  17    6   32 1
  18    7    8 1
  19    7   15 ar
  20    8    9 2
  21    8   33 1
  22    9   10 1
  23    9   34 1
  24   10   11 2
  25   10   12 1
  26   12   13 1
  27   12   14 2
  28   13   35 1
  29   15   16 ar
  30   15   36 1
  31   16   17 ar
  32   16   19 1
  33   17   18 1
  34   18   37 1
  35   19   20 1
  36   19   21 1
  37   19   22 1
  38   20   38 1
  39   20   39 1
  40   20   40 1
  41   21   41 1
  42   21   42 1
  43   21   43 1
  44   22   44 1
  45   22   45 1
  46   22   46 1

#	End of record

