#	Name: ASD01720096
#	Creating user name:	WinNT
#	Creation time:	15. 06. 2019 19:23

#	Modifying user name:	WinNT
#	Modification time:	15. 06. 2019 19:23

#	Program:	/corina/corina34_cracker 3.40 0067  02.08.2006

@<TRIPOS>MOLECULE
ASD01720096
  61   64    0    0    0
SMALL
NO_CHARGES


@<TRIPOS>ATOM
   1 C1            -0.0528     1.3662    -0.0160 C.ar    
   2 C2            -0.0526    -0.0024    -0.0234 C.ar    
   3 C3             1.1412    -0.6905     0.1863 C.ar    
   4 N4             2.2778    -0.0400     0.3930 N.ar    
   5 C5             2.3260     1.2808     0.4088 C.ar    
   6 C6             1.1601     2.0357     0.2044 C.ar    
   7 N7             1.1401    -2.0749     0.1790 N.3     
   8 O8             3.5062     1.9091     0.6232 O.3     
   9 C9             4.6543     1.0823     0.8239 C.3     
  10 C10            5.8846     1.9637     1.0487 C.3     
  11 C11            7.1138     1.0784     1.2636 C.3     
  12 C12            7.4068     0.2931    -0.0163 C.3     
  13 C13            8.3188     1.9546     1.6115 C.3     
  14 C14            1.2097     3.5067     0.2208 C.2     
  15 O15            2.2665     4.0775     0.4128 O.2     
  16 C16            2.5050    -2.6097     0.4200 C.3     
  17 C17            2.4631    -4.0486    -0.1376 C.3     
  18 C18            1.3242    -4.0423    -1.1781 C.3     
  19 C19            0.7738    -2.6000    -1.1616 C.3     
  20 C20            2.7728    -4.2565    -1.6215 C.3     
  21 C21            3.1668    -5.6430    -2.0612 C.2     
  22 O22            3.2281    -6.5386    -1.2526 O.2     
  23 O23            3.4496    -5.8830    -3.3512 O.3     
  24 N24            0.0841     4.2211     0.0230 N.am    
  25 C25            0.1118     5.6152     0.1353 C.ar    
  26 C26            1.2619     7.7023    -0.1745 C.ar    
  27 C27            1.2312     6.3243    -0.2836 C.ar    
  28 C28           -0.9801     6.2906     0.6595 C.ar    
  29 C29           -0.9480     7.6786     0.7689 C.ar    
  30 C30            0.1814     8.3813     0.3509 C.ar    
  31 B31           -2.1806     8.4501     1.3608 Du      
  32 O32           -3.3301     7.7326     1.7855 O.3     
  33 O33           -2.1459     9.8653     1.4715 O.3     
  34 H34           -0.9660     1.9188    -0.1808 H       
  35 H35           -0.9711    -0.5455    -0.1902 H       
  36 H36            4.4973     0.4482     1.6965 H       
  37 H37            4.8106     0.4577    -0.0556 H       
  38 H38            6.0416     2.5977     0.1761 H       
  39 H39            5.7283     2.5882     1.9282 H       
  40 H40            6.9223     0.3829     2.0808 H       
  41 H41            7.5984     0.9885    -0.8335 H       
  42 H42            8.2826    -0.3376     0.1368 H       
  43 H43            6.5484    -0.3312    -0.2642 H       
  44 H44            8.1101     2.5141     2.5234 H       
  45 H45            9.1945     1.3239     1.7647 H       
  46 H46            8.5104     2.6501     0.7944 H       
  47 H47            3.2459    -2.0160    -0.1153 H       
  48 H48            2.7255    -2.6220     1.4874 H       
  49 H49            2.5901    -4.8683     0.5696 H       
  50 H50            0.6035    -4.8572    -1.2455 H       
  51 H51           -0.3091    -2.6050    -1.2850 H       
  52 H52            1.2438    -2.0047    -1.9444 H       
  53 H53            3.2619    -3.4394    -2.1518 H       
  54 H54            3.6974    -6.7879    -3.5854 H       
  55 H55           -0.7451     3.7687    -0.1973 H       
  56 H56            2.1340     8.2489    -0.5014 H       
  57 H57            2.0795     5.7976    -0.6951 H       
  58 H58           -1.8528     5.7419     0.9815 H       
  59 H59            0.2092     9.4576     0.4348 H       
  60 H60           -4.0365     8.2929     2.1351 H       
  61 H61           -2.9496    10.2503     1.8470 H       
@<TRIPOS>BOND
   1    1    2 ar
   2    1    6 ar
   3    1   34 1
   4    2    3 ar
   5    2   35 1
   6    3    4 ar
   7    3    7 1
   8    4    5 ar
   9    5    6 ar
  10    5    8 1
  11    6   14 1
  12    7   16 1
  13    7   19 1
  14    8    9 1
  15    9   10 1
  16    9   36 1
  17    9   37 1
  18   10   11 1
  19   10   38 1
  20   10   39 1
  21   11   12 1
  22   11   13 1
  23   11   40 1
  24   12   41 1
  25   12   42 1
  26   12   43 1
  27   13   44 1
  28   13   45 1
  29   13   46 1
  30   14   15 2
  31   14   24 am
  32   16   17 1
  33   16   47 1
  34   16   48 1
  35   17   18 1
  36   17   20 1
  37   17   49 1
  38   18   19 1
  39   18   20 1
  40   18   50 1
  41   19   51 1
  42   19   52 1
  43   20   21 1
  44   20   53 1
  45   21   22 2
  46   21   23 1
  47   23   54 1
  48   24   25 1
  49   24   55 1
  50   25   28 ar
  51   25   27 ar
  52   26   27 ar
  53   26   30 ar
  54   26   56 1
  55   27   57 1
  56   28   29 ar
  57   28   58 1
  58   29   30 ar
  59   29   31 1
  60   30   59 1
  61   31   32 1
  62   31   33 1
  63   32   60 1
  64   33   61 1

#	End of record

