#	Name: ASD03490073
#	Creating user name:	WinNT
#	Creation time:	15. 06. 2019 20:42

#	Modifying user name:	WinNT
#	Modification time:	15. 06. 2019 20:42

#	Program:	/corina/corina34_cracker 3.40 0067  02.08.2006

@<TRIPOS>MOLECULE
ASD03490073
  53   54    0    0    0
SMALL
NO_CHARGES


@<TRIPOS>ATOM
   1 C1            -0.3934     0.1645    -1.1291 C.3     
   2 C2             0.2010    -0.8302    -0.1285 C.3     
   3 O3             1.4034    -1.3840    -0.6666 O.3     
   4 C4             2.4252    -0.4192    -0.9258 C.3     
   5 C5             1.9202     0.5920    -1.9584 C.3     
   6 C6             0.6418     1.2519    -1.4324 C.3     
   7 C7             2.7793     0.3102     0.3717 C.3     
   8 O8             0.1227     2.1438    -2.4209 O.3     
   9 O9             0.4935    -0.1560     1.0970 O.3     
  10 O10            2.7320    -0.6104     1.4637 O.3     
  11 C11            4.1881     0.8962     0.2592 C.3     
  12 O12            4.1017     2.2861    -0.0611 O.3     
  13 C13            4.9198     0.7245     1.5919 C.3     
  14 O14            6.2720     1.1652     1.4532 O.3     
  15 C15           -0.7899    -1.9358     0.1299 C.2     
  16 O16           -2.0326    -1.6405     0.5424 O.3     
  17 O17           -0.4657    -3.0882    -0.0342 O.2     
  18 C18           -2.9336    -2.7558     0.7717 C.3     
  19 C19           -4.2724    -2.2347     1.2268 C.ar    
  20 C20           -5.2503    -1.9359     0.2965 C.ar    
  21 C21           -6.4783    -1.4579     0.7140 C.ar    
  22 C22           -6.7287    -1.2791     2.0617 C.ar    
  23 C23           -5.7511    -1.5788     2.9920 C.ar    
  24 C24           -4.5245    -2.0609     2.5748 C.ar    
  25 N25            2.9436     1.6161    -2.1819 N.am    
  26 O26            1.8615     2.4083    -3.9492 O.2     
  27 C27            2.8200     2.4794    -3.2095 C.2     
  28 C28            3.8727     3.5329    -3.4394 C.3     
  29 H29           -0.6543    -0.3571    -2.0500 H       
  30 H30           -1.2866     0.6207    -0.7023 H       
  31 H31            3.3109    -0.9228    -1.3132 H       
  32 H32            1.7060     0.0790    -2.8960 H       
  33 H33            0.8661     1.8063    -0.5211 H       
  34 H34            2.0639     1.1144     0.5433 H       
  35 H35           -0.6886     2.5974    -2.1542 H       
  36 H36            0.7477    -0.7462     1.8196 H       
  37 H37            3.3868    -1.3198     1.4087 H       
  38 H38            4.7365     0.3757    -0.5260 H       
  39 H39            3.6254     2.8122     0.5957 H       
  40 H40            4.4214     1.3171     2.3590 H       
  41 H41            4.9080    -0.3267     1.8801 H       
  42 H42            6.7967     1.0851     2.2615 H       
  43 H43           -3.0581    -3.3184    -0.1536 H       
  44 H44           -2.5171    -3.4074     1.5399 H       
  45 H45           -5.0547    -2.0756    -0.7564 H       
  46 H46           -7.2421    -1.2237    -0.0128 H       
  47 H47           -7.6879    -0.9050     2.3878 H       
  48 H48           -5.9465    -1.4388     4.0449 H       
  49 H49           -3.7608    -2.2951     3.3016 H       
  50 H50            3.7102     1.6730    -1.5902 H       
  51 H51            4.6499     3.4417    -2.6805 H       
  52 H52            4.3123     3.3978    -4.4276 H       
  53 H53            3.4175     4.5213    -3.3762 H       
@<TRIPOS>BOND
   1    1    2 1
   2    1    6 1
   3    1   29 1
   4    1   30 1
   5    2    3 1
   6    2    9 1
   7    2   15 1
   8    3    4 1
   9    4    5 1
  10    4    7 1
  11    4   31 1
  12    5    6 1
  13    5   25 1
  14    5   32 1
  15    6    8 1
  16    6   33 1
  17    7   10 1
  18    7   11 1
  19    7   34 1
  20    8   35 1
  21    9   36 1
  22   10   37 1
  23   11   12 1
  24   11   13 1
  25   11   38 1
  26   12   39 1
  27   13   14 1
  28   13   40 1
  29   13   41 1
  30   14   42 1
  31   15   16 1
  32   15   17 2
  33   16   18 1
  34   18   19 1
  35   18   43 1
  36   18   44 1
  37   19   20 ar
  38   19   24 ar
  39   20   21 ar
  40   20   45 1
  41   21   22 ar
  42   21   46 1
  43   22   23 ar
  44   22   47 1
  45   23   24 ar
  46   23   48 1
  47   24   49 1
  48   25   27 am
  49   25   50 1
  50   26   27 2
  51   27   28 1
  52   28   51 1
  53   28   52 1
  54   28   53 1

#	End of record

