#	Name: ASD05250054
#	Creating user name:	WinNT
#	Creation time:	15. 06. 2019 20:58

#	Modifying user name:	WinNT
#	Modification time:	15. 06. 2019 20:58

#	Program:	/corina/corina34_cracker 3.40 0067  02.08.2006

@<TRIPOS>MOLECULE
ASD05250054
  28   29    0    0    0
SMALL
NO_CHARGES


@<TRIPOS>ATOM
   1 C1            -0.0167     1.3796     0.0096 C.ar    
   2 C2             0.0021    -0.0041     0.0020 C.ar    
   3 C3             1.2058    -0.6864    -0.0132 C.ar    
   4 C4             2.3967     0.0093    -0.0209 C.ar    
   5 C5             2.3856     1.4065    -0.0133 C.ar    
   6 C6             1.1662     2.0887     0.0021 C.ar    
   7 C7             3.6397     3.4994    -0.0140 C.2     
   8 C8             3.6541     2.1572    -0.0214 C.2     
   9 C9             4.8959     5.6468    -0.0146 C.ar    
  10 C10            4.9082     4.2502    -0.0222 C.ar    
  11 C11            6.0901     6.3475    -0.0218 C.ar    
  12 C12            7.2979     5.6644    -0.0370 C.ar    
  13 C13            7.3154     4.2769    -0.0442 C.ar    
  14 C14            6.1265     3.5672    -0.0371 C.ar    
  15 O15            8.5014     3.6135    -0.0591 O.3     
  16 O16            6.0794     7.7065    -0.0144 O.3     
  17 H17           -0.9600     1.9055     0.0170 H       
  18 H18           -0.9273    -0.5541     0.0083 H       
  19 H19            1.2128    -1.7664    -0.0187 H       
  20 H20            3.3355    -0.5246    -0.0324 H       
  21 H21            1.1501     3.1686     0.0077 H       
  22 H22            2.6987     4.0293    -0.0022 H       
  23 H23            4.5951     1.6273    -0.0333 H       
  24 H24            3.9563     6.1794    -0.0076 H       
  25 H25            8.2273     6.2144    -0.0433 H       
  26 H26            6.1411     2.4873    -0.0430 H       
  27 H27            8.8533     3.4170     0.8199 H       
  28 H28            6.0845     8.0950     0.8711 H       
@<TRIPOS>BOND
   1    1    2 ar
   2    1    6 ar
   3    1   17 1
   4    2    3 ar
   5    2   18 1
   6    3    4 ar
   7    3   19 1
   8    4    5 ar
   9    4   20 1
  10    5    6 ar
  11    5    8 1
  12    6   21 1
  13    7    8 2
  14    7   10 1
  15    7   22 1
  16    8   23 1
  17    9   10 ar
  18    9   11 ar
  19    9   24 1
  20   10   14 ar
  21   11   12 ar
  22   11   16 1
  23   12   13 ar
  24   12   25 1
  25   13   14 ar
  26   13   15 1
  27   14   26 1
  28   15   27 1
  29   16   28 1

#	End of record

