#	Name: ASD01883361
#	Creating user name:	WinNT
#	Creation time:	15. 06. 2019 19:46

#	Modifying user name:	WinNT
#	Modification time:	15. 06. 2019 19:46

#	Program:	/corina/corina34_cracker 3.40 0067  02.08.2006

@<TRIPOS>MOLECULE
ASD01883361
  42   43    0    0    0
SMALL
NO_CHARGES


@<TRIPOS>ATOM
   1 N1            -0.0161     1.3416     0.0134 N.am    
   2 C2            -0.0055     0.0078    -0.1666 C.2     
   3 C3            -1.2225    -0.7140    -0.1653 C.2     
   4 C4            -2.4239    -0.0108     0.0261 C.2     
   5 C5            -2.3698     1.3834     0.2090 C.2     
   6 C6            -1.1780     2.0193     0.2035 C.2     
   7 O7             1.0514    -0.5778    -0.3310 O.2     
   8 C8            -1.2298    -2.1332    -0.3559 C.1     
   9 N9            -1.2355    -3.2591    -0.5070 N.1     
  10 C10            1.2513     2.0764     0.0103 C.3     
  11 C11            1.5781     2.5237    -1.4159 C.3     
  12 C12            2.9017     3.2911    -1.4191 C.3     
  13 N13           -3.6309    -0.6732     0.0341 N.pl3   
  14 C14           -3.9343    -1.6769     1.0654 C.3     
  15 C15           -5.2925    -1.3386     1.6892 C.3     
  16 N16           -6.2991    -1.2162     0.6263 N.3     
  17 C17           -5.9809    -0.1079    -0.2838 C.3     
  18 C18           -4.6534    -0.3913    -0.9849 C.3     
  19 C19            4.0387     2.3483    -1.0200 C.3     
  20 C20            3.1666     3.8451    -2.8205 C.3     
  21 H21           -3.2806     1.9444     0.3575 H       
  22 H22           -1.1489     3.0896     0.3449 H       
  23 H23            1.1657     2.9513     0.6548 H       
  24 H24            2.0472     1.4296     0.3796 H       
  25 H25            1.6637     1.6488    -2.0604 H       
  26 H26            0.7822     3.1704    -1.7852 H       
  27 H27            2.8459     4.1147    -0.7074 H       
  28 H28           -3.9763    -2.6671     0.6115 H       
  29 H29           -3.1626    -1.6562     1.8349 H       
  30 H30           -5.5845    -2.1321     2.3771 H       
  31 H31           -5.2191    -0.3957     2.2310 H       
  32 H32           -6.3973    -2.0833     0.1197 H       
  33 H33           -6.7723    -0.0088    -1.0268 H       
  34 H34           -5.8980     0.8179     0.2855 H       
  35 H35           -4.3570     0.4773    -1.5728 H       
  36 H36           -4.7612    -1.2585    -1.6365 H       
  37 H37            4.0946     1.5247    -1.7318 H       
  38 H38            4.9817     2.8951    -1.0223 H       
  39 H39            3.8500     1.9537    -0.0217 H       
  40 H40            2.3565     4.5167    -3.1048 H       
  41 H41            4.1096     4.3918    -2.8228 H       
  42 H42            3.2224     3.0214    -3.5322 H       
@<TRIPOS>BOND
   1    1    2 am
   2    1   10 1
   3    1    6 1
   4    2    3 1
   5    2    7 2
   6    3    4 2
   7    3    8 1
   8    4    5 1
   9    4   13 1
  10    5    6 2
  11    5   21 1
  12    6   22 1
  13    8    9 3
  14   10   11 1
  15   10   23 1
  16   10   24 1
  17   11   12 1
  18   11   25 1
  19   11   26 1
  20   12   19 1
  21   12   20 1
  22   12   27 1
  23   13   14 1
  24   13   18 1
  25   14   15 1
  26   14   28 1
  27   14   29 1
  28   15   16 1
  29   15   30 1
  30   15   31 1
  31   16   17 1
  32   16   32 1
  33   17   18 1
  34   17   33 1
  35   17   34 1
  36   18   35 1
  37   18   36 1
  38   19   37 1
  39   19   38 1
  40   19   39 1
  41   20   40 1
  42   20   41 1
  43   20   42 1

#	End of record

