#	Name: ASD00170459
#	Creating user name:	WinNT
#	Creation time:	15. 06. 2019 18:32

#	Modifying user name:	WinNT
#	Modification time:	15. 06. 2019 18:32

#	Program:	/corina/corina34_cracker 3.40 0067  02.08.2006

@<TRIPOS>MOLECULE
ASD00170459
  88   94    0    0    0
SMALL
NO_CHARGES


@<TRIPOS>ATOM
   1 O1             3.0381     0.8018    -5.0983 O.3     
   2 C2             2.0698     1.6752    -4.5141 C.3     
   3 C3             0.9713     1.9754    -5.5359 C.3     
   4 C4            -0.0201     3.0160    -4.9697 C.3     
   5 C5            -1.3952     2.5515    -5.4996 C.3     
   6 C6            -1.0719     1.2852    -6.3232 C.3     
   7 O7             0.1721     0.7966    -5.7758 O.3     
   8 O8             0.2904     4.3219    -5.4600 O.3     
   9 O9            -1.9760     3.5564    -6.3333 O.3     
  10 N10           -2.1297     0.2853    -6.1576 N.pl3   
  11 C11           -3.2998     0.2157    -6.8705 C.ar    
  12 C12           -3.9943    -0.8972    -6.3673 C.ar    
  13 N13           -3.2267    -1.4391    -5.3917 N.2     
  14 C14           -2.1292    -0.7501    -5.2710 C.2     
  15 N15           -3.8465     0.9299    -7.8492 N.ar    
  16 C16           -5.0220     0.6025    -8.3427 C.ar    
  17 N17           -5.7122    -0.4336    -7.9023 N.ar    
  18 C18           -5.2459    -1.2069    -6.9271 C.ar    
  19 N19           -5.9766    -2.2912    -6.4721 N.pl3   
  20 C20           -7.1638    -2.6559    -7.1181 C.ar    
  21 C21           -7.2903    -2.4813    -8.4900 C.ar    
  22 C22           -8.4616    -2.8417    -9.1264 C.ar    
  23 C23           -9.5119    -3.3776    -8.3957 C.ar    
  24 C24           -9.3864    -3.5524    -7.0254 C.ar    
  25 C25           -8.2137    -3.1978    -6.3882 C.ar    
  26 O26          -10.6654    -3.7314    -9.0231 O.3     
  27 C27          -11.7055    -4.2770    -8.2093 C.3     
  28 C28          -12.9150    -4.6123    -9.0843 C.3     
  29 C29          -14.0287    -5.1964    -8.2129 C.3     
  30 C30          -15.2381    -5.5317    -9.0880 C.3     
  31 C31          -16.3518    -6.1159    -8.2166 C.3     
  32 N32          -17.5130    -6.4378    -9.0567 N.3     
  33 C33          -18.5084    -7.2148    -8.3043 C.3     
  34 C34          -19.8411    -7.1986    -9.0599 C.3     
  35 C35          -19.5707    -7.5800   -10.5071 C.2     
  36 C36          -18.3440    -7.5563   -11.0419 C.2     
  37 C37          -17.1006    -7.1503   -10.2751 C.3     
  38 C38          -20.5823    -8.0046   -11.4559 C.2     
  39 C39          -20.0715    -8.2924   -12.6971 C.2     
  40 S40          -18.3856    -8.0539   -12.7236 S.3     
  41 N41          -20.8213    -8.7168   -13.7753 N.pl3   
  42 C42          -22.0025    -8.1148   -11.1239 C.2     
  43 C43          -22.8780    -6.9266   -11.2169 C.ar    
  44 O44          -22.4640    -9.1850   -10.7708 O.2     
  45 C45          -24.2067    -7.0007   -10.7957 C.ar    
  46 C46          -25.0191    -5.8896   -10.8847 C.ar    
  47 C47          -24.5193    -4.7016   -11.3908 C.ar    
  48 C48          -23.2007    -4.6214   -11.8113 C.ar    
  49 C49          -22.3771    -5.7249   -11.7212 C.ar    
  50 Cl50         -22.5826    -3.1282   -12.4456 Cl      
  51 Cl51         -25.5480    -3.3074   -11.4996 Cl      
  52 H52            3.7657     0.5685    -4.5057 H       
  53 H53            1.6307     1.1971    -3.6385 H       
  54 H54            2.5528     2.6058    -4.2160 H       
  55 H55            1.4086     2.3354    -6.4672 H       
  56 H56           -0.0065     3.0030    -3.8799 H       
  57 H57           -2.0614     2.3089    -4.6717 H       
  58 H58           -0.9495     1.5385    -7.3763 H       
  59 H59            1.1684     4.6384    -5.2072 H       
  60 H60           -2.1440     4.3942    -5.8806 H       
  61 H61           -1.3383    -0.9626    -4.5669 H       
  62 H62           -5.4378     1.2041    -9.1375 H       
  63 H63           -5.6658    -2.7984    -5.7059 H       
  64 H64           -6.4729    -2.0634    -9.0589 H       
  65 H65           -8.5601    -2.7059   -10.1933 H       
  66 H66          -10.2048    -3.9693    -6.4572 H       
  67 H67           -8.1160    -3.3343    -5.3213 H       
  68 H68          -11.3475    -5.1836    -7.7214 H       
  69 H69          -11.9954    -3.5476    -7.4529 H       
  70 H70          -13.2730    -3.7057    -9.5721 H       
  71 H71          -12.6251    -5.3416    -9.8407 H       
  72 H72          -13.6706    -6.1030    -7.7251 H       
  73 H73          -14.3185    -4.4671    -7.4565 H       
  74 H74          -15.5962    -4.6251    -9.5758 H       
  75 H75          -14.9483    -6.2611    -9.8444 H       
  76 H76          -15.9938    -7.0225    -7.7287 H       
  77 H77          -16.6417    -5.3865    -7.4602 H       
  78 H78          -18.1628    -8.2431    -8.1983 H       
  79 H79          -18.6445    -6.7729    -7.3173 H       
  80 H80          -20.5267    -7.9179    -8.6119 H       
  81 H81          -20.2757    -6.1999    -9.0177 H       
  82 H82          -16.4875    -6.4942   -10.8929 H       
  83 H83          -16.5312    -8.0394   -10.0040 H       
  84 H84          -21.7879    -8.7595   -13.7071 H       
  85 H85          -20.3815    -8.9724   -14.6013 H       
  86 H86          -24.5982    -7.9267   -10.4011 H       
  87 H87          -26.0473    -5.9464   -10.5593 H       
  88 H88          -21.3498    -5.6618   -12.0486 H       
@<TRIPOS>BOND
   1    1    2 1
   2    1   52 1
   3    2    3 1
   4    2   53 1
   5    2   54 1
   6    3    4 1
   7    3    7 1
   8    3   55 1
   9    4    5 1
  10    4    8 1
  11    4   56 1
  12    5    6 1
  13    5    9 1
  14    5   57 1
  15    6    7 1
  16    6   10 1
  17    6   58 1
  18    8   59 1
  19    9   60 1
  20   10   11 1
  21   10   14 1
  22   11   12 ar
  23   11   15 ar
  24   12   13 1
  25   12   18 ar
  26   13   14 2
  27   14   61 1
  28   15   16 ar
  29   16   17 ar
  30   16   62 1
  31   17   18 ar
  32   18   19 1
  33   19   20 1
  34   19   63 1
  35   20   21 ar
  36   20   25 ar
  37   21   22 ar
  38   21   64 1
  39   22   23 ar
  40   22   65 1
  41   23   24 ar
  42   23   26 1
  43   24   25 ar
  44   24   66 1
  45   25   67 1
  46   26   27 1
  47   27   28 1
  48   27   68 1
  49   27   69 1
  50   28   29 1
  51   28   70 1
  52   28   71 1
  53   29   30 1
  54   29   72 1
  55   29   73 1
  56   30   31 1
  57   30   74 1
  58   30   75 1
  59   31   32 1
  60   31   76 1
  61   31   77 1
  62   32   33 1
  63   32   37 1
  64   33   34 1
  65   33   78 1
  66   33   79 1
  67   34   35 1
  68   34   80 1
  69   34   81 1
  70   35   36 2
  71   35   38 1
  72   36   37 1
  73   36   40 1
  74   37   82 1
  75   37   83 1
  76   38   39 2
  77   38   42 1
  78   39   40 1
  79   39   41 1
  80   41   84 1
  81   41   85 1
  82   42   43 1
  83   42   44 2
  84   43   45 ar
  85   43   49 ar
  86   45   46 ar
  87   45   86 1
  88   46   47 ar
  89   46   87 1
  90   47   48 ar
  91   47   51 1
  92   48   49 ar
  93   48   50 1
  94   49   88 1

#	End of record

