#	Name: ASD01883455
#	Creating user name:	WinNT
#	Creation time:	15. 06. 2019 19:46

#	Modifying user name:	WinNT
#	Modification time:	15. 06. 2019 19:46

#	Program:	/corina/corina34_cracker 3.40 0067  02.08.2006

@<TRIPOS>MOLECULE
ASD01883455
  67   69    0    0    0
SMALL
NO_CHARGES


@<TRIPOS>ATOM
   1 N1            -0.0080     1.3271     0.0354 N.am    
   2 C2            -0.3623     0.6471    -1.0708 C.2     
   3 C3            -1.5938    -0.0487    -1.1070 C.2     
   4 C4            -2.4239    -0.0108     0.0261 C.2     
   5 C5            -1.9981     0.7175     1.1524 C.2     
   6 C6            -0.8092     1.3586     1.1319 C.2     
   7 O7             0.3768     0.6309    -2.0406 O.2     
   8 C8            -1.9868    -0.7769    -2.2757 C.1     
   9 N9            -2.2985    -1.3546    -3.2029 N.1     
  10 N10           -3.6309    -0.6732     0.0341 N.pl3   
  11 C11           -4.8919     0.0702     0.1608 C.3     
  12 C12           -5.6944    -0.5155     1.3268 C.3     
  13 C13           -5.8708    -2.0207     1.1144 C.3     
  14 C14           -4.4985    -2.6976     1.0843 C.3     
  15 C15           -3.6827    -2.1362    -0.0901 C.3     
  16 C16            1.2701     2.0427     0.0594 C.3     
  17 C17            1.0645     3.4711    -0.4488 C.3     
  18 C18            2.3993     4.2185    -0.4237 C.3     
  19 C19            2.2199     5.6040    -1.0473 C.3     
  20 C20            2.8729     4.3680     1.0235 C.3     
  21 N21           -6.6684    -2.5800     2.2139 N.3     
  22 C22           -6.9591    -4.0014     1.9834 C.3     
  23 C23           -7.9887    -4.4840     3.0071 C.3     
  24 C24           -8.2869    -5.9421     2.7706 C.ar    
  25 C25           -7.5389    -6.9130     3.4095 C.ar    
  26 C26           -7.8125    -8.2507     3.1924 C.ar    
  27 C27           -8.8343    -8.6171     2.3369 C.ar    
  28 C28           -9.5832    -7.6460     1.6985 C.ar    
  29 C29           -9.3125    -6.3086     1.9188 C.ar    
  30 C30           -5.9962    -2.3829     3.5051 C.3     
  31 C31           -6.9963    -9.3093     3.8883 C.3     
  32 F32           -7.5921    -9.6272     5.1135 F       
  33 F33           -6.9377   -10.4546     3.0871 F       
  34 F34           -5.7013    -8.8287     4.1102 F       
  35 H35           -2.6200     0.7608     2.0343 H       
  36 H36           -0.4930     1.9144     2.0022 H       
  37 H37           -4.6785     1.1212     0.3555 H       
  38 H38           -5.4656    -0.0236    -0.7613 H       
  39 H39           -5.1602    -0.3399     2.2606 H       
  40 H40           -6.6729    -0.0373     1.3715 H       
  41 H41           -6.3831    -2.1964     0.1685 H       
  42 H42           -3.9756    -2.5016     2.0204 H       
  43 H43           -4.6258    -3.7726     0.9564 H       
  44 H44           -4.1593    -2.4118    -1.0309 H       
  45 H45           -2.6709    -2.5405    -0.0585 H       
  46 H46            1.6512     2.0716     1.0802 H       
  47 H47            1.9865     1.5287    -0.5814 H       
  48 H48            0.6835     3.4422    -1.4696 H       
  49 H49            0.3482     3.9852     0.1920 H       
  50 H50            3.1407     3.6573    -0.9924 H       
  51 H51            1.4785     6.1652    -0.4785 H       
  52 H52            3.1708     6.1365    -1.0294 H       
  53 H53            1.8825     5.4975    -2.0783 H       
  54 H54            3.0008     3.3809     1.4678 H       
  55 H55            3.8239     4.9004     1.0414 H       
  56 H56            2.1315     4.9292     1.5923 H       
  57 H57           -7.3581    -4.1321     0.9775 H       
  58 H58           -6.0424    -4.5815     2.0888 H       
  59 H59           -7.5897    -4.3532     4.0130 H       
  60 H60           -8.9054    -3.9038     2.9016 H       
  61 H61           -6.7404    -6.6266     4.0779 H       
  62 H62           -9.0476    -9.6621     2.1668 H       
  63 H63          -10.3814    -7.9323     1.0298 H       
  64 H64           -9.8974    -5.5500     1.4202 H       
  65 H65           -5.8556    -1.3167     3.6825 H       
  66 H66           -6.6081    -2.8062     4.3017 H       
  67 H67           -5.0261    -2.8796     3.4893 H       
@<TRIPOS>BOND
   1    1    2 am
   2    1   16 1
   3    1    6 1
   4    2    3 1
   5    2    7 2
   6    3    4 2
   7    3    8 1
   8    4    5 1
   9    4   10 1
  10    5    6 2
  11    5   35 1
  12    6   36 1
  13    8    9 3
  14   10   11 1
  15   10   15 1
  16   11   12 1
  17   11   37 1
  18   11   38 1
  19   12   13 1
  20   12   39 1
  21   12   40 1
  22   13   14 1
  23   13   21 1
  24   13   41 1
  25   14   15 1
  26   14   42 1
  27   14   43 1
  28   15   44 1
  29   15   45 1
  30   16   17 1
  31   16   46 1
  32   16   47 1
  33   17   18 1
  34   17   48 1
  35   17   49 1
  36   18   19 1
  37   18   20 1
  38   18   50 1
  39   19   51 1
  40   19   52 1
  41   19   53 1
  42   20   54 1
  43   20   55 1
  44   20   56 1
  45   21   22 1
  46   21   30 1
  47   22   23 1
  48   22   57 1
  49   22   58 1
  50   23   24 1
  51   23   59 1
  52   23   60 1
  53   24   25 ar
  54   24   29 ar
  55   25   26 ar
  56   25   61 1
  57   26   27 ar
  58   26   31 1
  59   27   28 ar
  60   27   62 1
  61   28   29 ar
  62   28   63 1
  63   29   64 1
  64   30   65 1
  65   30   66 1
  66   30   67 1
  67   31   32 1
  68   31   33 1
  69   31   34 1

#	End of record

