#	Name: ASD09120020
#	Creating user name:	WinNT
#	Creation time:	15. 06. 2019 21:21

#	Modifying user name:	WinNT
#	Modification time:	15. 06. 2019 21:21

#	Program:	/corina/corina34_cracker 3.40 0067  02.08.2006

@<TRIPOS>MOLECULE
ASD09120020
  33   35    0    0    0
SMALL
NO_CHARGES


@<TRIPOS>ATOM
   1 C1            -0.0188     1.3753    -0.0372 C.ar    
   2 C2            -0.0011    -0.0032    -0.0668 C.ar    
   3 C3             1.2042    -0.6839    -0.0683 C.ar    
   4 C4             2.3988     0.0118    -0.0396 C.ar    
   5 C5             2.3965     1.3930    -0.0092 C.ar    
   6 C6             1.1832     2.0857    -0.0085 C.ar    
   7 N7            -1.2746    -0.7571    -0.0967 N.pl3   
   8 O8            -2.3361    -0.1598    -0.0951 O.2     
   9 O9            -1.2609    -1.9747    -0.1229 O.2     
  10 C10            1.1718     3.5626     0.0228 C.2     
  11 O11            2.2199     4.1781     0.0477 O.2     
  12 N12           -0.0005     4.2276     0.0238 N.am    
  13 C13           -0.0135     5.6173     0.1362 C.ar    
  14 Cl14           3.8969     2.2653     0.0279 Cl      
  15 C15            1.0690     7.7459    -0.1632 C.ar    
  16 C16            1.0753     6.3593    -0.2719 C.ar    
  17 C17           -1.1424     6.2786     0.6629 C.ar    
  18 C18           -0.0065     8.4080     0.3463 C.ar    
  19 C19           -2.2764     5.5650     1.0870 C.ar    
  20 C20           -3.3338     6.2720     1.5874 C.ar    
  21 C21           -3.2663     7.6607     1.6652 C.ar    
  22 N22           -2.2066     8.3230     1.2684 N.ar    
  23 C23           -1.1386     7.6913     0.7693 C.ar    
  24 H24           -0.9602     1.9046    -0.0406 H       
  25 H25            1.2115    -1.7636    -0.0916 H       
  26 H26            3.3356    -0.5256    -0.0405 H       
  27 H27           -0.8351     3.7394    -0.0536 H       
  28 H28            1.9321     8.3074    -0.4888 H       
  29 H29            1.9412     5.8587    -0.6795 H       
  30 H30            0.0094     9.4852     0.4221 H       
  31 H31           -2.3116     4.4878     1.0192 H       
  32 H32           -4.2206     5.7542     1.9218 H       
  33 H33           -4.1093     8.2067     2.0623 H       
@<TRIPOS>BOND
   1    1    2 ar
   2    1    6 ar
   3    1   24 1
   4    2    3 ar
   5    2    7 1
   6    3    4 ar
   7    3   25 1
   8    4    5 ar
   9    4   26 1
  10    5    6 ar
  11    5   14 1
  12    6   10 1
  13    7    8 2
  14    7    9 2
  15   10   11 2
  16   10   12 am
  17   12   13 1
  18   12   27 1
  19   13   17 ar
  20   13   16 ar
  21   15   16 ar
  22   15   18 ar
  23   15   28 1
  24   16   29 1
  25   17   19 ar
  26   17   23 ar
  27   18   23 ar
  28   18   30 1
  29   19   20 ar
  30   19   31 1
  31   20   21 ar
  32   20   32 1
  33   21   22 ar
  34   21   33 1
  35   22   23 ar

#	End of record

