#	Name: ASD01883606
#	Creating user name:	WinNT
#	Creation time:	15. 06. 2019 19:46

#	Modifying user name:	WinNT
#	Modification time:	15. 06. 2019 19:46

#	Program:	/corina/corina34_cracker 3.40 0067  02.08.2006

@<TRIPOS>MOLECULE
ASD01883606
  55   57    0    0    0
SMALL
NO_CHARGES


@<TRIPOS>ATOM
   1 C1             0.0928     1.3378     0.4263 C.2     
   2 C2             0.1022     0.0050     0.6391 C.2     
   3 N3             1.1372    -0.5928     1.2871 N.am    
   4 C4             2.1841     0.1230     1.7371 C.2     
   5 C5             2.2243     1.5113     1.5422 C.2     
   6 C6             1.1721     2.1293     0.8814 C.2     
   7 O7             3.1010    -0.4374     2.3169 O.2     
   8 Cl8            3.5703     2.4432     2.1197 Cl      
   9 C9             1.1798     3.5928     0.6567 C.ar    
  10 C10            1.2449     4.1007    -0.6414 C.ar    
  11 C11            1.2513     5.4633    -0.8470 C.ar    
  12 C12            1.1932     6.3311     0.2364 C.ar    
  13 C13            1.1283     5.8288     1.5301 C.ar    
  14 C14            1.1161     4.4672     1.7424 C.ar    
  15 O15            1.2002     7.6733     0.0303 O.3     
  16 C16            2.3999     8.3113     0.0228 C.ar    
  17 C17            3.5761     7.5807     0.1132 C.ar    
  18 C18            4.7944     8.2317     0.1049 C.ar    
  19 C19            4.8425     9.6102     0.0069 C.ar    
  20 C20            3.6718    10.3405    -0.0829 C.ar    
  21 C21            2.4511     9.6940    -0.0811 C.ar    
  22 C22            1.1120    -2.0421     1.4995 C.3     
  23 C23            1.7784    -2.7430     0.3140 C.3     
  24 C24            6.1730    10.3177    -0.0015 C.3     
  25 C25            6.0150    11.7084     0.6166 C.3     
  26 O26            7.1186     9.5631     0.7590 O.3     
  27 C27            6.6694    10.4534    -1.4423 C.3     
  28 C28            1.7521    -4.2566     0.5359 C.3     
  29 C29            2.4185    -4.9575    -0.6497 C.3     
  30 H30           -0.7345     1.7975    -0.0940 H       
  31 H31           -0.7248    -0.5953     0.2898 H       
  32 H32            1.2904     3.4266    -1.4840 H       
  33 H33            1.3020     5.8570    -1.8514 H       
  34 H34            1.0832     6.5061     2.3701 H       
  35 H35            1.0657     4.0774     2.7483 H       
  36 H36            3.5391     6.5041     0.1905 H       
  37 H37            5.7102     7.6636     0.1752 H       
  38 H38            3.7121    11.4171    -0.1589 H       
  39 H39            1.5370    10.2649    -0.1517 H       
  40 H40            1.6516    -2.2845     2.4150 H       
  41 H41            0.0789    -2.3786     1.5867 H       
  42 H42            1.2387    -2.5006    -0.6015 H       
  43 H43            2.8114    -2.4064     0.2268 H       
  44 H44            5.6614    11.6117     1.6431 H       
  45 H45            6.9774    12.2201     0.6105 H       
  46 H46            5.2937    12.2840     0.0365 H       
  47 H47            6.8682     9.4372     1.6845 H       
  48 H48            5.9481    11.0290    -2.0224 H       
  49 H49            7.6318    10.9652    -1.4484 H       
  50 H50            6.7819     9.4627    -1.8827 H       
  51 H51            2.2917    -4.4990     1.4514 H       
  52 H52            0.7190    -4.5931     0.6231 H       
  53 H53            1.8788    -4.7151    -1.5652 H       
  54 H54            3.4515    -4.6209    -0.7369 H       
  55 H55            2.3997    -6.0358    -0.4916 H       
@<TRIPOS>BOND
   1    1    2 2
   2    1    6 1
   3    1   30 1
   4    2    3 1
   5    2   31 1
   6    3    4 am
   7    3   22 1
   8    4    5 1
   9    4    7 2
  10    5    6 2
  11    5    8 1
  12    6    9 1
  13    9   10 ar
  14    9   14 ar
  15   10   11 ar
  16   10   32 1
  17   11   12 ar
  18   11   33 1
  19   12   13 ar
  20   12   15 1
  21   13   14 ar
  22   13   34 1
  23   14   35 1
  24   15   16 1
  25   16   17 ar
  26   16   21 ar
  27   17   18 ar
  28   17   36 1
  29   18   19 ar
  30   18   37 1
  31   19   20 ar
  32   19   24 1
  33   20   21 ar
  34   20   38 1
  35   21   39 1
  36   22   23 1
  37   22   40 1
  38   22   41 1
  39   23   28 1
  40   23   42 1
  41   23   43 1
  42   24   25 1
  43   24   26 1
  44   24   27 1
  45   25   44 1
  46   25   45 1
  47   25   46 1
  48   26   47 1
  49   27   48 1
  50   27   49 1
  51   27   50 1
  52   28   29 1
  53   28   51 1
  54   28   52 1
  55   29   53 1
  56   29   54 1
  57   29   55 1

#	End of record

