#	Name: ASD03331125
#	Creating user name:	WinNT
#	Creation time:	15. 06. 2019 20:38

#	Modifying user name:	WinNT
#	Modification time:	15. 06. 2019 20:38

#	Program:	/corina/corina34_cracker 3.40 0067  02.08.2006

@<TRIPOS>MOLECULE
ASD03331125
  47   49    0    0    0
SMALL
NO_CHARGES


@<TRIPOS>ATOM
   1 O1            -1.3592    -0.8129    -1.3086 O.2     
   2 C2             0.3974     2.2892    -1.7152 C.ar    
   3 C3             0.1847     0.9360    -1.4453 C.ar    
   4 C4            -1.1758     0.3654    -1.5440 C.2     
   5 N5            -2.2126     1.1518    -1.8950 N.am    
   6 C6             2.7345     2.0214    -1.2652 C.ar    
   7 C7             2.5349     0.6684    -0.9927 C.ar    
   8 C8             1.2584     0.1241    -1.0828 C.ar    
   9 C9             3.6831    -0.1894    -0.6074 C.ar    
  10 C10            4.9615     0.3545    -0.5173 C.ar    
  11 C11            6.0293    -0.4514    -0.1572 C.ar    
  12 O12            7.2791     0.0761    -0.0682 O.3     
  13 C13            7.5525     0.8201     1.0206 C.2     
  14 N14            8.7355     1.4581     1.1210 N.am    
  15 C15            9.0329     2.2675     2.3054 C.3     
  16 C16           10.5486     2.3581     2.4937 C.3     
  17 C17            1.6677     2.8221    -1.6235 C.ar    
  18 C18            5.8232    -1.7969     0.1130 C.ar    
  19 C19            4.5540    -2.3376     0.0232 C.ar    
  20 C20            3.4836    -1.5405    -0.3293 C.ar    
  21 O21            6.7327     0.9163     1.9124 O.2     
  22 C22           10.8593     3.2034     3.7305 C.3     
  23 C23           10.2835     4.6088     3.5455 C.3     
  24 C24            8.7678     4.5182     3.3572 C.3     
  25 C25            8.4572     3.6729     2.1204 C.3     
  26 H26           -0.4323     2.9190    -2.0006 H       
  27 H27           -2.0662     2.0921    -2.0828 H       
  28 H28           -3.1051     0.7775    -1.9597 H       
  29 H29            3.7257     2.4445    -1.1949 H       
  30 H30            1.0994    -0.9232    -0.8725 H       
  31 H31            5.1205     1.4018    -0.7279 H       
  32 H32            9.3899     1.3814     0.4092 H       
  33 H33            8.5847     1.8040     3.1842 H       
  34 H34           10.9588     1.3568     2.6255 H       
  35 H35           10.9969     2.8216     1.6149 H       
  36 H36            1.8279     3.8694    -1.8332 H       
  37 H37            6.6568    -2.4235     0.3938 H       
  38 H38            4.3988    -3.3853     0.2341 H       
  39 H39            2.4933    -1.9657    -0.3986 H       
  40 H40           10.4110     2.7398     4.6093 H       
  41 H41           11.9391     3.2679     3.8647 H       
  42 H42           10.5048     5.2110     4.4267 H       
  43 H43           10.7318     5.0723     2.6667 H       
  44 H44            8.3196     4.0547     4.2360 H       
  45 H45            8.3576     5.5195     3.2254 H       
  46 H46            8.9054     4.1364     1.2415 H       
  47 H47            7.3774     3.6084     1.9862 H       
@<TRIPOS>BOND
   1    1    4 2
   2    2    3 ar
   3    2   17 ar
   4    2   26 1
   5    3    4 1
   6    3    8 ar
   7    4    5 am
   8    5   27 1
   9    5   28 1
  10    6    7 ar
  11    6   17 ar
  12    6   29 1
  13    7    8 ar
  14    7    9 1
  15    8   30 1
  16    9   10 ar
  17    9   20 ar
  18   10   11 ar
  19   10   31 1
  20   11   12 1
  21   11   18 ar
  22   12   13 1
  23   13   14 am
  24   13   21 2
  25   14   15 1
  26   14   32 1
  27   15   16 1
  28   15   25 1
  29   15   33 1
  30   16   22 1
  31   16   34 1
  32   16   35 1
  33   17   36 1
  34   18   19 ar
  35   18   37 1
  36   19   20 ar
  37   19   38 1
  38   20   39 1
  39   22   23 1
  40   22   40 1
  41   22   41 1
  42   23   24 1
  43   23   42 1
  44   23   43 1
  45   24   25 1
  46   24   44 1
  47   24   45 1
  48   25   46 1
  49   25   47 1

#	End of record

