#	Name: ASD01813629
#	Creating user name:	WinNT
#	Creation time:	15. 06. 2019 19:30

#	Modifying user name:	WinNT
#	Modification time:	15. 06. 2019 19:30

#	Program:	/corina/corina34_cracker 3.40 0067  02.08.2006

@<TRIPOS>MOLECULE
ASD01813629
  42   45    0    0    0
SMALL
NO_CHARGES


@<TRIPOS>ATOM
   1 C1             0.0979     1.4754     0.3558 C.ar    
   2 C2             0.0799     0.0882     0.3480 C.ar    
   3 C3             1.2501    -0.6307     0.2175 C.ar    
   4 C4             2.4672     0.0383     0.0916 C.ar    
   5 C5             2.4807     1.4430     0.1000 C.ar    
   6 C6             1.2892     2.1559     0.2329 C.ar    
   7 N7             3.6443    -0.6677    -0.0386 N.pl3   
   8 C8             4.8374    -0.0728    -0.1609 C.2     
   9 C9             4.9774     1.3006    -0.1658 C.2     
  10 C10            3.7745     2.1383    -0.0339 C.2     
  11 O11            3.8448     3.3548    -0.0328 O.2     
  12 C12            6.3053     1.9158    -0.3013 C.2     
  13 O13            6.4290     3.2582    -0.3047 O.3     
  14 O14            7.2920     1.2142    -0.4104 O.2     
  15 C15            3.5871    -2.1316    -0.0427 C.3     
  16 C16            3.4445    -2.6248    -1.4595 C.ar    
  17 C17            4.5601    -2.7693    -2.2640 C.ar    
  18 N18            4.4485    -3.1994    -3.5041 N.ar    
  19 C19            3.2707    -3.5095    -4.0293 C.ar    
  20 C20            2.1053    -3.3878    -3.2759 C.ar    
  21 C21            2.1934    -2.9436    -1.9677 C.ar    
  22 F22            1.2170    -1.9812     0.2120 F       
  23 C23            3.1937    -3.9897    -5.4313 C.ar    
  24 C24            4.3466    -4.1205    -6.2089 C.ar    
  25 C25            4.2296    -4.5712    -7.5102 C.ar    
  26 N26            3.0499    -4.8755    -8.0175 N.ar    
  27 C27            1.9379    -4.7657    -7.3159 C.ar    
  28 C28            1.9660    -4.3288    -6.0076 C.ar    
  29 Cl29           5.6528    -4.7388    -8.4901 Cl      
  30 H30           -0.8269     2.0244     0.4543 H       
  31 H31           -0.8602    -0.4344     0.4456 H       
  32 H32            1.3005     3.2359     0.2389 H       
  33 H33            5.7198    -0.6878    -0.2588 H       
  34 H34            7.3225     3.6165    -0.3962 H       
  35 H35            4.5033    -2.5323     0.3911 H       
  36 H36            2.7314    -2.4634     0.5453 H       
  37 H37            5.5359    -2.5260    -1.8704 H       
  38 H38            1.1470    -3.6408    -3.7050 H       
  39 H39            1.3073    -2.8396    -1.3591 H       
  40 H40            5.3148    -3.8727    -5.7996 H       
  41 H41            0.9934    -5.0256    -7.7705 H       
  42 H42            1.0516    -4.2418    -5.4395 H       
@<TRIPOS>BOND
   1    1    2 ar
   2    1    6 ar
   3    1   30 1
   4    2    3 ar
   5    2   31 1
   6    3    4 ar
   7    3   22 1
   8    4    5 ar
   9    4    7 1
  10    5    6 ar
  11    5   10 1
  12    6   32 1
  13    7    8 1
  14    7   15 1
  15    8    9 2
  16    8   33 1
  17    9   10 1
  18    9   12 1
  19   10   11 2
  20   12   13 1
  21   12   14 2
  22   13   34 1
  23   15   16 1
  24   15   35 1
  25   15   36 1
  26   16   17 ar
  27   16   21 ar
  28   17   18 ar
  29   17   37 1
  30   18   19 ar
  31   19   20 ar
  32   19   23 1
  33   20   21 ar
  34   20   38 1
  35   21   39 1
  36   23   24 ar
  37   23   28 ar
  38   24   25 ar
  39   24   40 1
  40   25   26 ar
  41   25   29 1
  42   26   27 ar
  43   27   28 ar
  44   27   41 1
  45   28   42 1

#	End of record

