#	Name: ASD08390015
#	Creating user name:	WinNT
#	Creation time:	15. 06. 2019 21:19

#	Modifying user name:	WinNT
#	Modification time:	15. 06. 2019 21:19

#	Program:	/corina/corina34_cracker 3.40 0067  02.08.2006

@<TRIPOS>MOLECULE
ASD08390015
  45   47    0    0    0
SMALL
NO_CHARGES


@<TRIPOS>ATOM
   1 N1             0.0176     1.4922    -0.1696 N.2     
   2 C2            -0.0304     0.0903     0.2677 C.3     
   3 C3             1.4489    -0.3419     0.3048 C.3     
   4 N4             2.1669     0.8720    -0.1181 N.pl3   
   5 C5             1.2419     1.8567    -0.3625 C.2     
   6 C6             5.6558     1.8317     0.5162 C.ar    
   7 C7             4.2902     1.7295     0.6805 C.ar    
   8 C8             3.5488     0.9996    -0.2480 C.ar    
   9 C9             4.2258     0.4004    -1.3095 C.ar    
  10 C10            5.5938     0.5502    -1.4018 C.ar    
  11 N11            6.2601     1.2496    -0.5025 N.ar    
  12 C12            1.8519    -0.7385     1.7017 C.2     
  13 O13            2.4608     0.0386     2.3984 O.2     
  14 O14            1.5345    -1.9550     2.1720 O.3     
  15 C15            1.5069    -3.6872     3.8834 C.3     
  16 C16            1.9548    -2.2686     3.5260 C.3     
  17 C17            1.6152     3.2183    -0.8086 C.ar    
  18 C18            2.8706     3.4518    -1.3696 C.ar    
  19 C19            3.2126     4.7230    -1.7833 C.ar    
  20 C20            2.3134     5.7647    -1.6423 C.ar    
  21 C21            1.0668     5.5395    -1.0863 C.ar    
  22 C22            0.7107     4.2715    -0.6748 C.ar    
  23 C23           -0.6548    -0.0156     1.6604 C.3     
  24 C24           -0.8027    -0.7449    -0.7207 C.2     
  25 O25           -0.4555    -1.8781    -0.9556 O.2     
  26 O26           -1.8765    -0.2299    -1.3400 O.3     
  27 H27            1.6286    -1.1583    -0.3947 H       
  28 H28            6.2374     2.3988     1.2279 H       
  29 H29            3.8019     2.2080     1.5166 H       
  30 H30            3.6867    -0.1733    -2.0488 H       
  31 H31            6.1265     0.0895    -2.2206 H       
  32 H32            1.8224    -3.9226     4.8999 H       
  33 H33            0.4210    -3.7533     3.8156 H       
  34 H34            1.9581    -4.3964     3.1895 H       
  35 H35            3.0407    -2.2025     3.5939 H       
  36 H36            1.5036    -1.5594     4.2200 H       
  37 H37            3.5737     2.6394    -1.4795 H       
  38 H38            4.1844     4.9050    -2.2179 H       
  39 H39            2.5858     6.7580    -1.9673 H       
  40 H40            0.3693     6.3570    -0.9781 H       
  41 H41           -0.2646     4.0959    -0.2453 H       
  42 H42           -1.6782     0.3583     1.6291 H       
  43 H43           -0.6585    -1.0582     1.9786 H       
  44 H44           -0.0727     0.5775     2.3657 H       
  45 H45           -2.3397    -0.8037    -1.9656 H       
@<TRIPOS>BOND
   1    1    2 1
   2    1    5 2
   3    2   23 1
   4    2   24 1
   5    2    3 1
   6    3    4 1
   7    3   12 1
   8    3   27 1
   9    4    5 1
  10    4    8 1
  11    5   17 1
  12    6    7 ar
  13    6   11 ar
  14    6   28 1
  15    7    8 ar
  16    7   29 1
  17    8    9 ar
  18    9   10 ar
  19    9   30 1
  20   10   11 ar
  21   10   31 1
  22   12   13 2
  23   12   14 1
  24   14   16 1
  25   15   16 1
  26   15   32 1
  27   15   33 1
  28   15   34 1
  29   16   35 1
  30   16   36 1
  31   17   18 ar
  32   17   22 ar
  33   18   19 ar
  34   18   37 1
  35   19   20 ar
  36   19   38 1
  37   20   21 ar
  38   20   39 1
  39   21   22 ar
  40   21   40 1
  41   22   41 1
  42   23   42 1
  43   23   43 1
  44   23   44 1
  45   24   25 2
  46   24   26 1
  47   26   45 1

#	End of record

