#	Name: ASD00069255
#	Creating user name:	WinNT
#	Creation time:	15. 06. 2019 18:29

#	Modifying user name:	WinNT
#	Modification time:	15. 06. 2019 18:29

#	Program:	/corina/corina34_cracker 3.40 0067  02.08.2006

@<TRIPOS>MOLECULE
ASD00069255
  49   50    0    0    0
SMALL
NO_CHARGES


@<TRIPOS>ATOM
   1 C1            -0.0162     1.3436     0.0094 C.2     
   2 N2             0.0021    -0.0041     0.0020 N.am    
   3 O3             1.0277     1.9654     0.0028 O.2     
   4 O4            -1.1912     2.0008     0.0186 O.3     
   5 C5            -1.2565    -0.7538     0.0100 C.3     
   6 N6             2.7231    -3.2207    -0.0371 N.3     
   7 C7             2.6964    -2.3956     1.1773 C.3     
   8 C8             1.3868    -1.6055     1.2301 C.3     
   9 C9             1.2806    -0.7192    -0.0140 C.3     
  10 C10            1.3596    -1.5981    -1.2654 C.3     
  11 C11            2.6700    -2.3884    -1.2458 C.3     
  12 C12            3.8485    -4.0567    -0.0519 C.ar    
  13 C13            3.6905    -5.4410    -0.0986 C.ar    
  14 C14            4.8076    -6.2629    -0.1134 C.ar    
  15 C15            6.0744    -5.7095    -0.0815 C.ar    
  16 C16            6.2328    -4.3370    -0.0348 C.ar    
  17 C17            5.1234    -3.5085    -0.0258 C.ar    
  18 F18            5.2817    -2.1674     0.0137 F       
  19 N19            2.4072    -6.0003    -0.1299 N.pl3   
  20 C20           -1.1349     3.4517     0.0262 C.3     
  21 C21           -0.4003     3.9401    -1.2239 C.3     
  22 C22           -2.5565     4.0172     0.0360 C.3     
  23 C23           -0.3885     3.9266     1.2745 C.3     
  24 H24           -1.5785    -0.9342    -1.0156 H       
  25 H25           -1.1084    -1.7071     0.5173 H       
  26 H26           -2.0192    -0.1778     0.5342 H       
  27 H27            2.7684    -3.0383     2.0547 H       
  28 H28            3.5380    -1.7031     1.1645 H       
  29 H29            0.5451    -2.2975     1.2568 H       
  30 H30            1.3741    -0.9814     2.1236 H       
  31 H31            2.1000    -0.0004    -0.0203 H       
  32 H32            0.5175    -2.2900    -1.2779 H       
  33 H33            1.3274    -0.9687    -2.1547 H       
  34 H34            3.5117    -1.6960    -1.2473 H       
  35 H35            2.7228    -3.0259    -2.1284 H       
  36 H36            4.6880    -7.3356    -0.1495 H       
  37 H37            6.9428    -6.3516    -0.0928 H       
  38 H38            7.2244    -3.9098    -0.0093 H       
  39 H39            1.6267    -5.4244    -0.1191 H       
  40 H40            2.2987    -6.9637    -0.1624 H       
  41 H41           -0.9321     3.6018    -2.1132 H       
  42 H42           -0.3581     5.0293    -1.2182 H       
  43 H43            0.6125     3.5373    -1.2309 H       
  44 H44           -3.0798     3.6692     0.9266 H       
  45 H45           -2.5142     5.1064     0.0417 H       
  46 H46           -3.0883     3.6789    -0.8533 H       
  47 H47            0.6243     3.5237     1.2675 H       
  48 H48           -0.3462     5.0157     1.2802 H       
  49 H49           -0.9118     3.5786     2.1651 H       
@<TRIPOS>BOND
   1    1    2 am
   2    1    3 2
   3    1    4 1
   4    2    5 1
   5    2    9 1
   6    4   20 1
   7    5   24 1
   8    5   25 1
   9    5   26 1
  10    6    7 1
  11    6   11 1
  12    6   12 1
  13    7    8 1
  14    7   27 1
  15    7   28 1
  16    8    9 1
  17    8   29 1
  18    8   30 1
  19    9   10 1
  20    9   31 1
  21   10   11 1
  22   10   32 1
  23   10   33 1
  24   11   34 1
  25   11   35 1
  26   12   13 ar
  27   12   17 ar
  28   13   14 ar
  29   13   19 1
  30   14   15 ar
  31   14   36 1
  32   15   16 ar
  33   15   37 1
  34   16   17 ar
  35   16   38 1
  36   17   18 1
  37   19   39 1
  38   19   40 1
  39   20   21 1
  40   20   23 1
  41   20   22 1
  42   21   41 1
  43   21   42 1
  44   21   43 1
  45   22   44 1
  46   22   45 1
  47   22   46 1
  48   23   47 1
  49   23   48 1
  50   23   49 1

#	End of record

