#	Name: ASD03091194
#	Creating user name:	WinNT
#	Creation time:	15. 06. 2019 20:30

#	Modifying user name:	WinNT
#	Modification time:	15. 06. 2019 20:30

#	Program:	/corina/corina34_cracker 3.40 0067  02.08.2006

@<TRIPOS>MOLECULE
ASD03091194
  48   52    0    0    0
SMALL
NO_CHARGES


@<TRIPOS>ATOM
   1 C1            -0.5271     1.5477     0.0202 C.3     
   2 N2            -0.3692     0.0917    -0.0145 N.am    
   3 C3            -0.0991    -0.5842     1.1337 C.2     
   4 N4             0.0545    -1.8721     1.1849 N.2     
   5 C5            -0.0461    -2.6456     0.0743 C.ar    
   6 C6            -0.3251    -2.0294    -1.1658 C.ar    
   7 C7            -0.4989    -0.5693    -1.1884 C.2     
   8 C8             0.0291     0.2022     2.4128 C.3     
   9 O9            -0.7409     0.0228    -2.2241 O.2     
  10 C10            0.1198    -4.0313     0.1303 C.ar    
  11 C11            0.0116    -4.7767    -1.0087 C.ar    
  12 C12           -0.2638    -4.1735    -2.2359 C.ar    
  13 C13           -0.4329    -2.8019    -2.3199 C.ar    
  14 N14           -0.3692    -4.9584    -3.3876 N.3     
  15 C15            0.1846    -4.2578    -4.5548 C.3     
  16 C16            0.9185    -5.2348    -5.4612 C.3     
  17 C17           -0.0092    -6.1402    -6.2462 C.3     
  18 N18           -1.4198    -5.7887    -6.0290 N.3     
  19 C19           -1.8911    -6.3620    -4.7591 C.3     
  20 C20           -1.7627    -5.3493    -3.6320 C.3     
  21 C21           -1.6880    -4.3815    -6.2350 C.3     
  22 C22           -0.9289    -3.5013    -5.2558 C.3     
  23 C23           -0.2624    -0.5297     3.7244 C.3     
  24 C24            1.1769    -0.1646     3.3557 C.3     
  25 H25            0.3718     2.0009     0.4381 H       
  26 H26           -0.6850     1.9203    -0.9919 H       
  27 H27           -1.3858     1.8054     0.6402 H       
  28 H28           -0.2540     1.2529     2.3491 H       
  29 H29            0.3337    -4.5125     1.0732 H       
  30 H30            0.1413    -5.8477    -0.9588 H       
  31 H31           -0.6460    -2.3357    -3.2705 H       
  32 H32            0.9048    -3.5225    -4.1961 H       
  33 H33            1.5303    -4.6681    -6.1632 H       
  34 H34            1.5753    -5.8532    -4.8495 H       
  35 H35            0.2205    -6.0506    -7.3079 H       
  36 H36            0.1526    -7.1720    -5.9342 H       
  37 H37           -2.9364    -6.6534    -4.8627 H       
  38 H38           -1.2955    -7.2430    -4.5199 H       
  39 H39           -2.1730    -5.7824    -2.7197 H       
  40 H40           -2.3389    -4.4603    -3.8887 H       
  41 H41           -1.3987    -4.1115    -7.2506 H       
  42 H42           -2.7567    -4.2040    -6.1147 H       
  43 H43           -1.6248    -3.1216    -4.5077 H       
  44 H44           -0.4985    -2.6587    -5.7970 H       
  45 H45           -0.7370     0.0395     4.5237 H       
  46 H46           -0.5469    -1.5801     3.6621 H       
  47 H47            1.8393    -0.9748     3.0508 H       
  48 H48            1.6492     0.6448     3.9123 H       
@<TRIPOS>BOND
   1    1    2 1
   2    1   25 1
   3    1   26 1
   4    1   27 1
   5    2    3 1
   6    2    7 am
   7    3    4 2
   8    3    8 1
   9    4    5 1
  10    5    6 ar
  11    5   10 ar
  12    6    7 1
  13    6   13 ar
  14    7    9 2
  15    8   23 1
  16    8   24 1
  17    8   28 1
  18   10   11 ar
  19   10   29 1
  20   11   12 ar
  21   11   30 1
  22   12   13 ar
  23   12   14 1
  24   13   31 1
  25   14   15 1
  26   14   20 1
  27   15   16 1
  28   15   22 1
  29   15   32 1
  30   16   17 1
  31   16   33 1
  32   16   34 1
  33   17   18 1
  34   17   35 1
  35   17   36 1
  36   18   19 1
  37   18   21 1
  38   19   20 1
  39   19   37 1
  40   19   38 1
  41   20   39 1
  42   20   40 1
  43   21   22 1
  44   21   41 1
  45   21   42 1
  46   22   43 1
  47   22   44 1
  48   23   24 1
  49   23   45 1
  50   23   46 1
  51   24   47 1
  52   24   48 1

#	End of record

