#	Name: ASD02560130
#	Creating user name:	WinNT
#	Creation time:	15. 06. 2019 20:24

#	Modifying user name:	WinNT
#	Modification time:	15. 06. 2019 20:24

#	Program:	/corina/corina34_cracker 3.40 0067  02.08.2006

@<TRIPOS>MOLECULE
ASD02560130
  56   60    0    0    0
SMALL
NO_CHARGES


@<TRIPOS>ATOM
   1 N1            -0.1909     1.0688     0.0958 N.2     
   2 N2            -0.0628    -0.1591     0.0631 N.2     
   3 C3             1.1030     1.7426    -0.0738 C.3     
   4 N4             2.1156     0.6861     0.1771 N.3     
   5 C5             1.3412    -0.5418    -0.1346 C.3     
   6 S6             1.7968    -1.8812     1.0007 S.3     
   7 C7             1.3751    -1.1983     2.6275 C.3     
   8 C8             1.7009    -2.2094     3.6965 C.2     
   9 O9             2.1712    -3.2849     3.3909 O.2     
  10 N10            1.4695    -1.9187     4.9920 N.am    
  11 C11            3.2031     0.8224    -0.6831 C.ar    
  12 C12            1.6793    -2.8919     5.9760 C.ar    
  13 C13            0.8562    -2.9398     7.0950 C.ar    
  14 C14            1.0661    -3.9023     8.0640 C.ar    
  15 C15            2.0937    -4.8168     7.9209 C.ar    
  16 C16            2.9138    -4.7714     6.8088 C.ar    
  17 C17            2.7062    -3.8150     5.8336 C.ar    
  18 Cl18          -0.4333    -1.7916     7.2752 Cl      
  19 S19            2.3585    -6.0423     9.1589 S.o2    
  20 O20            3.7191    -6.4369     9.0484 O.2     
  21 O21            1.7927    -5.5304    10.3577 O.2     
  22 C22            4.1485     1.8524    -0.4921 C.ar    
  23 C23            3.3822    -0.0518    -1.7386 C.ar    
  24 C24            4.4608     0.0581    -2.6162 C.ar    
  25 C25            5.3848     1.0463    -2.4554 C.ar    
  26 C26            5.2225     1.9327    -1.3951 C.ar    
  27 C27            6.2087     2.9100    -1.3024 C.ar    
  28 C28            6.1183     3.8154    -0.2897 C.ar    
  29 C29            5.0615     3.7517     0.6212 C.ar    
  30 C30            4.0852     2.8005     0.5398 C.ar    
  31 C31            6.6390     1.4493    -3.1929 C.3     
  32 C32            7.1801     2.6807    -2.4345 C.3     
  33 N33            1.4528    -7.3644     8.7417 N.am    
  34 C34            1.2392     2.2836    -1.4985 C.3     
  35 F35            0.1352     3.0885    -1.7993 F       
  36 F36            2.4105     3.0419    -1.5994 F       
  37 H37            1.2087     2.5496     0.6512 H       
  38 H38            1.5101    -0.8449    -1.1679 H       
  39 H39            1.9507    -0.2889     2.8001 H       
  40 H40            0.3106    -0.9661     2.6593 H       
  41 H41            1.1577    -1.0350     5.2425 H       
  42 H42            0.4274    -3.9402     8.9341 H       
  43 H43            3.7155    -5.4869     6.7004 H       
  44 H44            3.3475    -3.7804     4.9653 H       
  45 H45            2.6648    -0.8451    -1.8882 H       
  46 H46            4.5643    -0.6455    -3.4289 H       
  47 H47            6.8677     4.5866    -0.1899 H       
  48 H48            5.0131     4.4819     1.4155 H       
  49 H49            3.2801     2.7766     1.2593 H       
  50 H50            7.3682     0.6394    -3.1687 H       
  51 H51            6.4025     1.7150    -4.2233 H       
  52 H52            7.2087     3.5480    -3.0942 H       
  53 H53            8.1741     2.4735    -2.0383 H       
  54 H54            0.9130    -7.3478     7.9359 H       
  55 H55            1.4622    -8.1554     9.3030 H       
  56 H56            1.2839     1.4510    -2.2006 H       
@<TRIPOS>BOND
   1    1    2 2
   2    1    3 1
   3    2    5 1
   4    3    4 1
   5    3   34 1
   6    3   37 1
   7    4    5 1
   8    4   11 1
   9    5    6 1
  10    5   38 1
  11    6    7 1
  12    7    8 1
  13    7   39 1
  14    7   40 1
  15    8    9 2
  16    8   10 am
  17   10   12 1
  18   10   41 1
  19   11   22 ar
  20   11   23 ar
  21   12   13 ar
  22   12   17 ar
  23   13   14 ar
  24   13   18 1
  25   14   15 ar
  26   14   42 1
  27   15   16 ar
  28   15   19 1
  29   16   17 ar
  30   16   43 1
  31   17   44 1
  32   19   20 2
  33   19   21 2
  34   19   33 am
  35   22   26 ar
  36   22   30 ar
  37   23   24 ar
  38   23   45 1
  39   24   25 ar
  40   24   46 1
  41   25   26 ar
  42   25   31 1
  43   26   27 ar
  44   27   28 ar
  45   27   32 1
  46   28   29 ar
  47   28   47 1
  48   29   30 ar
  49   29   48 1
  50   30   49 1
  51   31   32 1
  52   31   50 1
  53   31   51 1
  54   32   52 1
  55   32   53 1
  56   33   54 1
  57   33   55 1
  58   34   35 1
  59   34   36 1
  60   34   56 1

#	End of record

