#	Name: ASD02500549
#	Creating user name:	WinNT
#	Creation time:	15. 06. 2019 20:23

#	Modifying user name:	WinNT
#	Modification time:	15. 06. 2019 20:23

#	Program:	/corina/corina34_cracker 3.40 0067  02.08.2006

@<TRIPOS>MOLECULE
ASD02500549
  61   65    0    0    0
SMALL
NO_CHARGES


@<TRIPOS>ATOM
   1 N1            -3.5072     5.4203     0.0914 N.ar    
   2 C2            -4.6723     6.0019    -0.0586 C.ar    
   3 C3            -5.7518     5.7060     0.7711 C.ar    
   4 C4            -5.6105     4.7878     1.7722 C.ar    
   5 C5            -4.3579     4.1648     1.9300 C.ar    
   6 C6            -4.1371     3.2115     2.9367 C.ar    
   7 C7            -2.9109     2.6316     3.0570 C.ar    
   8 C8            -1.8714     2.9721     2.1943 C.ar    
   9 C9            -2.0505     3.8922     1.2074 C.ar    
  10 C10           -3.3020     4.5127     1.0513 C.ar    
  11 S11           -0.7184     4.3046     0.1305 S.o2    
  12 O12           -0.6601     5.7239     0.0896 O.2     
  13 O13            0.3801     3.4926     0.5218 O.2     
  14 N14           -1.1468     3.8102    -1.3908 N.am    
  15 C15           -1.3752     2.4624    -1.6453 C.ar    
  16 C16           -2.5029     2.0726    -2.3617 C.ar    
  17 C17           -2.7322     0.7380    -2.6150 C.ar    
  18 C18           -1.8291    -0.2252    -2.1510 C.ar    
  19 C19           -0.6976     0.1712    -1.4321 C.ar    
  20 C20           -0.4723     1.5064    -1.1874 C.ar    
  21 Cl21          -4.1394     0.2518    -3.5078 Cl      
  22 C22           -2.0708    -1.6548    -2.4193 C.2     
  23 O23           -2.3447    -2.0243    -3.5450 O.2     
  24 N24           -1.9882    -2.5520    -1.4170 N.am    
  25 C25           -1.7721    -2.1155    -0.0291 C.3     
  26 C26           -2.8352    -2.7714     0.8585 C.3     
  27 N27           -2.8102    -4.2258     0.6537 N.3     
  28 C28           -3.1614    -4.5753    -0.7292 C.3     
  29 C29           -2.1177    -3.9930    -1.6811 C.3     
  30 C30           -3.6935    -4.9073     1.6094 C.3     
  31 C31           -3.8343    -6.3559     1.2184 C.ar    
  32 C32           -2.9520    -7.2955     1.7179 C.ar    
  33 C33           -3.0812    -8.6243     1.3592 C.ar    
  34 C34           -4.0930    -9.0134     0.5014 C.ar    
  35 C35           -4.9758    -8.0739     0.0026 C.ar    
  36 C36           -4.8493    -6.7458     0.3648 C.ar    
  37 H37           -4.7988     6.7302    -0.8461 H       
  38 H38           -6.6994     6.2025     0.6230 H       
  39 H39           -6.4365     4.5465     2.4248 H       
  40 H40           -4.9350     2.9399     3.6119 H       
  41 H41           -2.7420     1.8984     3.8317 H       
  42 H42           -0.9078     2.4986     2.3106 H       
  43 H43           -1.2384     4.4608    -2.1045 H       
  44 H44           -3.1989     2.8170    -2.7192 H       
  45 H45            0.0011    -0.5696    -1.0723 H       
  46 H46            0.4041     1.8131    -0.6359 H       
  47 H47           -0.7796    -2.4223     0.3009 H       
  48 H48           -1.8624    -1.0310     0.0319 H       
  49 H49           -2.6244    -2.5476     1.9042 H       
  50 H50           -3.8192    -2.3838     0.5944 H       
  51 H51           -3.1871    -5.6599    -0.8350 H       
  52 H52           -4.1407    -4.1626    -0.9712 H       
  53 H53           -2.4364    -4.1492    -2.7117 H       
  54 H54           -1.1590    -4.4837    -1.5130 H       
  55 H55           -3.2663    -4.8409     2.6100 H       
  56 H56           -4.6741    -4.4316     1.6007 H       
  57 H57           -2.1616    -6.9915     2.3880 H       
  58 H58           -2.3915    -9.3583     1.7488 H       
  59 H59           -4.1935   -10.0514     0.2206 H       
  60 H60           -5.7661    -8.3778    -0.6678 H       
  61 H61           -5.5413    -6.0123    -0.0220 H       
@<TRIPOS>BOND
   1    1    2 ar
   2    1   10 ar
   3    2    3 ar
   4    2   37 1
   5    3    4 ar
   6    3   38 1
   7    4    5 ar
   8    4   39 1
   9    5    6 ar
  10    5   10 ar
  11    6    7 ar
  12    6   40 1
  13    7    8 ar
  14    7   41 1
  15    8    9 ar
  16    8   42 1
  17    9   10 ar
  18    9   11 1
  19   11   12 2
  20   11   13 2
  21   11   14 am
  22   14   15 1
  23   14   43 1
  24   15   16 ar
  25   15   20 ar
  26   16   17 ar
  27   16   44 1
  28   17   18 ar
  29   17   21 1
  30   18   19 ar
  31   18   22 1
  32   19   20 ar
  33   19   45 1
  34   20   46 1
  35   22   23 2
  36   22   24 am
  37   24   25 1
  38   24   29 1
  39   25   26 1
  40   25   47 1
  41   25   48 1
  42   26   27 1
  43   26   49 1
  44   26   50 1
  45   27   28 1
  46   27   30 1
  47   28   29 1
  48   28   51 1
  49   28   52 1
  50   29   53 1
  51   29   54 1
  52   30   31 1
  53   30   55 1
  54   30   56 1
  55   31   32 ar
  56   31   36 ar
  57   32   33 ar
  58   32   57 1
  59   33   34 ar
  60   33   58 1
  61   34   35 ar
  62   34   59 1
  63   35   36 ar
  64   35   60 1
  65   36   61 1

#	End of record

