#	Name: ASD02038648
#	Creating user name:	WinNT
#	Creation time:	15. 06. 2019 20:17

#	Modifying user name:	WinNT
#	Modification time:	15. 06. 2019 20:17

#	Program:	/corina/corina34_cracker 3.40 0067  02.08.2006

@<TRIPOS>MOLECULE
ASD02038648
  55   57    0    0    0
SMALL
NO_CHARGES


@<TRIPOS>ATOM
   1 C1             0.2418     1.3037     0.5361 C.ar    
   2 C2             0.1929    -0.0812     0.4750 C.ar    
   3 O3            -1.0052    -0.7220     0.5308 O.3     
   4 C4            -0.9813    -2.1492     0.4625 C.3     
   5 C5            -2.4115    -2.6874     0.5397 C.3     
   6 C6            -2.3969    -4.2044     0.3417 C.3     
   7 N7            -3.7754    -4.7120     0.3446 N.3     
   8 C8            -4.4505    -4.4087    -0.9238 C.3     
   9 C9            -5.9216    -4.8202    -0.8313 C.3     
  10 C10            1.4582     1.9551     0.4789 C.ar    
  11 C11            2.6322     1.2235     0.3604 C.ar    
  12 C12            2.5825    -0.1626     0.2993 C.ar    
  13 C13            1.3655    -0.8127     0.3565 C.ar    
  14 N14            3.8669     1.8840     0.3019 N.am    
  15 O15           -2.9679    -2.3794     1.8193 O.3     
  16 C16           -3.8055    -6.1519     0.6310 C.3     
  17 C17           -6.0092    -6.3191    -0.5306 C.3     
  18 C18           -5.2573    -6.6155     0.7699 C.3     
  19 C19           -7.4544    -6.7186    -0.3790 C.ar    
  20 C20           -7.8571    -7.9971    -0.7169 C.ar    
  21 C21           -9.1827    -8.3636    -0.5780 C.ar    
  22 O22           -5.4185    -7.0566    -1.6026 O.3     
  23 C23            4.0495     3.0329     0.9825 C.2     
  24 O24            3.1768     3.4475     1.7207 O.2     
  25 N25            5.1994     3.7223     0.8448 N.am    
  26 C26           -8.3762    -5.8084     0.1032 C.ar    
  27 C27           -9.7018    -6.1749     0.2422 C.ar    
  28 C28          -10.1055    -7.4517    -0.1007 C.ar    
  29 H29           -0.6718     1.8729     0.6238 H       
  30 H30           -0.5263    -2.4604    -0.4778 H       
  31 H31           -0.3994    -2.5431     1.2957 H       
  32 H32           -3.0163    -2.2250    -0.2404 H       
  33 H33           -1.9242    -4.4419    -0.6114 H       
  34 H34           -1.8362    -4.6712     1.1516 H       
  35 H35           -4.3845    -3.3392    -1.1237 H       
  36 H36           -3.9694    -4.9594    -1.7320 H       
  37 H37           -6.4067    -4.2598    -0.0322 H       
  38 H38           -6.4186    -4.6094    -1.7782 H       
  39 H39            1.4961     3.0334     0.5262 H       
  40 H40            3.4954    -0.7322     0.2074 H       
  41 H41            1.3267    -1.8910     0.3093 H       
  42 H42            4.5901     1.5143    -0.2284 H       
  43 H43           -2.4795    -2.7594     2.5624 H       
  44 H44           -3.3274    -6.6945    -0.1845 H       
  45 H45           -3.2710    -6.3485     1.5604 H       
  46 H46           -5.2798    -7.6873     0.9670 H       
  47 H47           -5.7320    -6.0833     1.5942 H       
  48 H48           -7.1361    -8.7095    -1.0898 H       
  49 H49           -9.4975    -9.3622    -0.8426 H       
  50 H50           -5.4391    -8.0154    -1.4785 H       
  51 H51            5.8956     3.3916     0.2559 H       
  52 H52            5.3308     4.5492     1.3346 H       
  53 H53           -8.0607    -4.8110     0.3717 H       
  54 H54          -10.4220    -5.4638     0.6194 H       
  55 H55          -11.1412    -7.7381     0.0080 H       
@<TRIPOS>BOND
   1    1    2 ar
   2    1   10 ar
   3    1   29 1
   4    2    3 1
   5    2   13 ar
   6    3    4 1
   7    4    5 1
   8    4   30 1
   9    4   31 1
  10    5    6 1
  11    5   15 1
  12    5   32 1
  13    6    7 1
  14    6   33 1
  15    6   34 1
  16    7    8 1
  17    7   16 1
  18    8    9 1
  19    8   35 1
  20    8   36 1
  21    9   17 1
  22    9   37 1
  23    9   38 1
  24   10   11 ar
  25   10   39 1
  26   11   12 ar
  27   11   14 1
  28   12   13 ar
  29   12   40 1
  30   13   41 1
  31   14   23 am
  32   14   42 1
  33   15   43 1
  34   16   18 1
  35   16   44 1
  36   16   45 1
  37   17   18 1
  38   17   19 1
  39   17   22 1
  40   18   46 1
  41   18   47 1
  42   19   20 ar
  43   19   26 ar
  44   20   21 ar
  45   20   48 1
  46   21   28 ar
  47   21   49 1
  48   22   50 1
  49   23   24 2
  50   23   25 am
  51   25   51 1
  52   25   52 1
  53   26   27 ar
  54   26   53 1
  55   27   28 ar
  56   27   54 1
  57   28   55 1

#	End of record

