#	Name: ASD02198104
#	Creating user name:	WinNT
#	Creation time:	15. 06. 2019 20:18

#	Modifying user name:	WinNT
#	Modification time:	15. 06. 2019 20:18

#	Program:	/corina/corina34_cracker 3.40 0067  02.08.2006

@<TRIPOS>MOLECULE
ASD02198104
  50   52    0    0    0
SMALL
NO_CHARGES


@<TRIPOS>ATOM
   1 C1             1.2377     0.9410    -0.6402 C.2     
   2 C2             1.1307    -0.4223    -0.4638 C.2     
   3 C3            -0.1256    -1.0951    -0.3241 C.1     
   4 S4             2.8715     1.4108    -0.7708 S.3     
   5 C5             3.4304    -0.2440    -0.5868 C.2     
   6 C6             2.3554    -1.0863    -0.4338 C.2     
   7 C7             4.7801    -0.6480    -0.5957 C.2     
   8 C8             5.8438     0.3353    -0.8880 C.ar    
   9 O9             5.0706    -1.8093    -0.3622 O.2     
  10 N10            2.4770    -2.4572    -0.2660 N.pl3   
  11 N11            0.1692     1.8056    -0.7077 N.pl3   
  12 N12           -1.1223    -1.6289    -0.2133 N.1     
  13 C13            6.6461     0.8276     0.1428 C.ar    
  14 C14            0.3880     3.1852    -0.7470 C.ar    
  15 C15            7.6398     1.7479    -0.1378 C.ar    
  16 C16            7.8406     2.1829    -1.4415 C.ar    
  17 C17            7.0509     1.7005    -2.4669 C.ar    
  18 C18            6.0555     0.7734    -2.2015 C.ar    
  19 C19           -0.5112     4.0143    -1.4062 C.ar    
  20 O20            8.4221     2.2283     0.8654 O.3     
  21 C21            9.4293     3.1760     0.5056 C.3     
  22 O22            5.2798     0.2998    -3.2104 O.3     
  23 C23            5.5447     0.8006    -4.5223 C.3     
  24 C24           -1.7247     3.4270    -2.0795 C.3     
  25 C25            1.5020     3.7314    -0.1224 C.ar    
  26 C26            1.7153     5.0954    -0.1632 C.ar    
  27 C27            0.8215     5.9170    -0.8249 C.ar    
  28 C28           -0.2918     5.3771    -1.4431 C.ar    
  29 C29           -2.8495     3.2674    -1.0547 C.3     
  30 H30            3.3555    -2.8681    -0.2523 H       
  31 H31            1.6835    -3.0054    -0.1623 H       
  32 H32           -0.7359     1.4573    -0.7279 H       
  33 H33            6.4910     0.4910     1.1572 H       
  34 H34            8.6176     2.9021    -1.6544 H       
  35 H35            7.2122     2.0433    -3.4783 H       
  36 H36           10.1157     2.7228    -0.2096 H       
  37 H37            8.9606     4.0509     0.0551 H       
  38 H38            9.9798     3.4772     1.3969 H       
  39 H39            5.4101     1.8822    -4.5323 H       
  40 H40            6.5699     0.5595    -4.8031 H       
  41 H41            4.8561     0.3422    -5.2321 H       
  42 H42           -2.0534     4.0908    -2.8793 H       
  43 H43           -1.4725     2.4523    -2.4970 H       
  44 H44            2.2004     3.0902     0.3950 H       
  45 H45            2.5811     5.5207     0.3225 H       
  46 H46            0.9905     6.9832    -0.8551 H       
  47 H47           -0.9878     6.0216    -1.9594 H       
  48 H48           -2.5208     2.6037    -0.2550 H       
  49 H49           -3.1017     4.2422    -0.6372 H       
  50 H50           -3.7272     2.8426    -1.5418 H       
@<TRIPOS>BOND
   1    1    2 2
   2    1    4 1
   3    1   11 1
   4    2    3 1
   5    2    6 1
   6    3   12 3
   7    4    5 1
   8    5    6 2
   9    5    7 1
  10    6   10 1
  11    7    8 1
  12    7    9 2
  13    8   13 ar
  14    8   18 ar
  15   10   30 1
  16   10   31 1
  17   11   14 1
  18   11   32 1
  19   13   15 ar
  20   13   33 1
  21   14   25 ar
  22   14   19 ar
  23   15   16 ar
  24   15   20 1
  25   16   17 ar
  26   16   34 1
  27   17   18 ar
  28   17   35 1
  29   18   22 1
  30   19   24 1
  31   19   28 ar
  32   20   21 1
  33   21   36 1
  34   21   37 1
  35   21   38 1
  36   22   23 1
  37   23   39 1
  38   23   40 1
  39   23   41 1
  40   24   29 1
  41   24   42 1
  42   24   43 1
  43   25   26 ar
  44   25   44 1
  45   26   27 ar
  46   26   45 1
  47   27   28 ar
  48   27   46 1
  49   28   47 1
  50   29   48 1
  51   29   49 1
  52   29   50 1

#	End of record

