#	Name: ASD08178527
#	Creating user name:	WinNT
#	Creation time:	15. 06. 2019 21:19

#	Modifying user name:	WinNT
#	Modification time:	15. 06. 2019 21:19

#	Program:	/corina/corina34_cracker 3.40 0067  02.08.2006

@<TRIPOS>MOLECULE
ASD08178527
  37   38    0    0    0
SMALL
NO_CHARGES


@<TRIPOS>ATOM
   1 C1            -0.0168     1.3865     0.0097 C.2     
   2 N2             0.0021    -0.0041     0.0020 N.am    
   3 C3             1.1783    -0.6620    -0.0122 C.2     
   4 O4             2.2202    -0.0413    -0.0184 O.2     
   5 C5             1.1987    -2.1688    -0.0205 C.3     
   6 C6             2.6261    -2.6518    -0.0361 C.ar    
   7 C7             3.2917    -2.8797     1.1538 C.ar    
   8 C8             3.2681    -2.8722    -1.2404 C.ar    
   9 C9             4.5774    -3.3152    -1.2547 C.ar    
  10 C10            5.2450    -3.5373    -0.0648 C.ar    
  11 C11            4.6011    -3.3227     1.1395 C.ar    
  12 N12            1.0282     2.1579     0.0038 N.2     
  13 S13           -1.4222     2.3660     0.0209 S.3     
  14 C14           -0.3973     3.8017     0.0244 C.2     
  15 N15            0.8358     3.4056     0.0124 N.2     
  16 C16           -0.8714     5.2322     0.0342 C.3     
  17 C17           -1.0378     5.7241    -1.4050 C.3     
  18 C18           -1.5191     7.1764    -1.3950 C.3     
  19 C19           -1.6855     7.6684    -2.8342 C.3     
  20 C20           -2.1486     9.0656    -2.8246 C.1     
  21 N21           -2.5059    10.1440    -2.8173 N.1     
  22 H22           -0.8313    -0.5004     0.0069 H       
  23 H23            0.6980    -2.5439     0.8720 H       
  24 H24            0.6817    -2.5343    -0.9078 H       
  25 H25            2.7889    -2.7114     2.0946 H       
  26 H26            2.7465    -2.6987    -2.1700 H       
  27 H27            5.0787    -3.4882    -2.1956 H       
  28 H28            6.2679    -3.8838    -0.0760 H       
  29 H29            5.1226    -3.4962     2.0691 H       
  30 H30           -1.8283     5.2943     0.5524 H       
  31 H31           -0.1387     5.8542     0.5484 H       
  32 H32           -0.0809     5.6620    -1.9231 H       
  33 H33           -1.7705     5.1021    -1.9191 H       
  34 H34           -2.4760     7.2386    -0.8769 H       
  35 H35           -0.7864     7.7985    -0.8809 H       
  36 H36           -0.7286     7.6063    -3.3524 H       
  37 H37           -2.4182     7.0463    -3.3484 H       
@<TRIPOS>BOND
   1    1    2 1
   2    1   12 2
   3    1   13 1
   4    2    3 am
   5    2   22 1
   6    3    4 2
   7    3    5 1
   8    5    6 1
   9    5   23 1
  10    5   24 1
  11    6    7 ar
  12    6    8 ar
  13    7   11 ar
  14    7   25 1
  15    8    9 ar
  16    8   26 1
  17    9   10 ar
  18    9   27 1
  19   10   11 ar
  20   10   28 1
  21   11   29 1
  22   12   15 1
  23   13   14 1
  24   14   15 2
  25   14   16 1
  26   16   17 1
  27   16   30 1
  28   16   31 1
  29   17   18 1
  30   17   32 1
  31   17   33 1
  32   18   19 1
  33   18   34 1
  34   18   35 1
  35   19   20 1
  36   19   36 1
  37   19   37 1
  38   20   21 3

#	End of record

