#	Name: ASD00310013
#	Creating user name:	WinNT
#	Creation time:	15. 06. 2019 18:33

#	Modifying user name:	WinNT
#	Modification time:	15. 06. 2019 18:33

#	Program:	/corina/corina34_cracker 3.40 0067  02.08.2006

@<TRIPOS>MOLECULE
ASD00310013
  38   41    0    0    0
SMALL
NO_CHARGES


@<TRIPOS>ATOM
   1 N1            -0.0169     1.3943     0.0097 N.pl3   
   2 N2             0.0021    -0.0041     0.0020 N.2     
   3 C3             1.2309    -0.4351    -0.0120 C.2     
   4 C4             2.1116     0.7294    -0.0142 C.ar    
   5 C5             3.4998     0.8943    -0.0269 C.ar    
   6 C6             4.0339     2.1730    -0.0256 C.ar    
   7 C7             3.1880     3.2903    -0.0110 C.ar    
   8 C8             1.8324     3.1368     0.0019 C.ar    
   9 C9             1.2723     1.8605    -0.0001 C.ar    
  10 C10            5.5056     2.3597    -0.0390 C.ar    
  11 C11            6.0913     3.2218    -0.9647 C.ar    
  12 C12            7.4592     3.3938    -0.9755 C.ar    
  13 C13            8.2542     2.7084    -0.0642 C.ar    
  14 C14            7.6722     1.8480     0.8594 C.ar    
  15 C15            6.3041     1.6777     0.8777 C.ar    
  16 N16            9.6392     2.8841    -0.0769 N.3     
  17 C17           10.2831     2.0698     0.9640 C.3     
  18 C18           11.8014     2.2461     0.8759 C.3     
  19 O19           12.1229     3.6343     0.9983 O.3     
  20 C20           11.5129     4.4568    -0.0001 C.3     
  21 C21            9.9917     4.3028     0.0791 C.3     
  22 Cl22           3.8721     4.8858    -0.0089 Cl      
  23 H23           -0.8146     1.9460     0.0167 H       
  24 H24            1.5428    -1.4690    -0.0202 H       
  25 H25            4.1505     0.0324    -0.0374 H       
  26 H26            1.1918     4.0062     0.0134 H       
  27 H27            5.4741     3.7542    -1.6731 H       
  28 H28            7.9135     4.0614    -1.6928 H       
  29 H29            8.2916     1.3161     1.5663 H       
  30 H30            5.8519     1.0128     1.5986 H       
  31 H31            9.9356     2.3924     1.9454 H       
  32 H32           10.0293     1.0204     0.8141 H       
  33 H33           12.2798     1.6893     1.6816 H       
  34 H34           12.1559     1.8738    -0.0853 H       
  35 H35           11.7827     5.4987     0.1720 H       
  36 H36           11.8590     4.1487    -0.9867 H       
  37 H37            9.5252     4.8835    -0.7167 H       
  38 H38            9.6395     4.6611     1.0464 H       
@<TRIPOS>BOND
   1    1    2 1
   2    1    9 1
   3    1   23 1
   4    2    3 2
   5    3    4 1
   6    3   24 1
   7    4    5 ar
   8    4    9 ar
   9    5    6 ar
  10    5   25 1
  11    6    7 ar
  12    6   10 1
  13    7    8 ar
  14    7   22 1
  15    8    9 ar
  16    8   26 1
  17   10   11 ar
  18   10   15 ar
  19   11   12 ar
  20   11   27 1
  21   12   13 ar
  22   12   28 1
  23   13   14 ar
  24   13   16 1
  25   14   15 ar
  26   14   29 1
  27   15   30 1
  28   16   17 1
  29   16   21 1
  30   17   18 1
  31   17   31 1
  32   17   32 1
  33   18   19 1
  34   18   33 1
  35   18   34 1
  36   19   20 1
  37   20   21 1
  38   20   35 1
  39   20   36 1
  40   21   37 1
  41   21   38 1

#	End of record

