#	Name: ASD01028804
#	Creating user name:	WinNT
#	Creation time:	15. 06. 2019 18:58

#	Modifying user name:	WinNT
#	Modification time:	15. 06. 2019 18:58

#	Program:	/corina/corina34_cracker 3.40 0067  02.08.2006

@<TRIPOS>MOLECULE
ASD01028804
  44   48    0    0    0
SMALL
NO_CHARGES


@<TRIPOS>ATOM
   1 N1            -0.0162     1.3469     0.0094 N.am    
   2 C2             0.0021    -0.0041     0.0020 C.2     
   3 C3             1.2922    -0.7022    -0.0141 C.2     
   4 N4             2.4044    -0.0248    -0.0210 N.2     
   5 C5             2.3977     1.3219    -0.0137 C.ar    
   6 C6             3.6086     2.0317    -0.0214 C.ar    
   7 C7             3.5990     3.3957    -0.0136 C.ar    
   8 C8             2.3994     4.0957     0.0020 C.ar    
   9 C9             1.1973     3.4232     0.0103 C.ar    
  10 C10            1.1824     2.0314     0.0017 C.ar    
  11 O11           -1.0397    -0.6346     0.0090 O.2     
  12 C12            2.4132     5.6027     0.0104 C.3     
  13 C13            1.7745     6.8257    -3.3660 C.2     
  14 C14            0.8547     7.1964    -4.3652 C.2     
  15 C15           -0.4764     7.1181    -4.1020 C.2     
  16 C16           -0.9233     6.6703    -2.8407 C.2     
  17 N17           -0.0651     6.3232    -1.9072 N.2     
  18 N18            1.3087     6.3929    -2.1470 N.pl3   
  19 N19            3.4566     6.3631    -2.1458 N.2     
  20 N20            3.0955     6.7830    -3.3080 N.2     
  21 C21            2.4041     6.1130    -1.4075 C.2     
  22 C22           -2.3788     6.5895    -2.5651 C.ar    
  23 C23           -2.8320     6.1488    -1.3231 C.ar    
  24 C24           -4.1871     6.0756    -1.0722 C.ar    
  25 C25           -5.0949     6.4382    -2.0508 C.ar    
  26 C26           -4.6508     6.8760    -3.2855 C.ar    
  27 C27           -3.2978     6.9595    -3.5452 C.ar    
  28 C28            1.3306    -2.2087    -0.0220 C.3     
  29 H29           -0.8584     1.8281     0.0161 H       
  30 H30            4.5475     1.4981    -0.0332 H       
  31 H31            4.5336     3.9368    -0.0192 H       
  32 H32            0.2686     3.9745     0.0232 H       
  33 H33            1.5317     5.9712     0.5349 H       
  34 H34            3.3115     5.9550     0.5175 H       
  35 H35            1.2024     7.5391    -5.3285 H       
  36 H36           -1.1932     7.3993    -4.8594 H       
  37 H37           -2.1241     5.8648    -0.5586 H       
  38 H38           -4.5395     5.7342    -0.1101 H       
  39 H39           -6.1545     6.3790    -1.8503 H       
  40 H40           -5.3639     7.1572    -4.0463 H       
  41 H41           -2.9520     7.3060    -4.5079 H       
  42 H42            1.3299    -2.5667    -1.0515 H       
  43 H43            2.2346    -2.5517     0.4813 H       
  44 H44            0.4553    -2.5972     0.4984 H       
@<TRIPOS>BOND
   1    1    2 am
   2    1   10 1
   3    1   29 1
   4    2    3 1
   5    2   11 2
   6    3    4 2
   7    3   28 1
   8    4    5 1
   9    5    6 ar
  10    5   10 ar
  11    6    7 ar
  12    6   30 1
  13    7    8 ar
  14    7   31 1
  15    8    9 ar
  16    8   12 1
  17    9   10 ar
  18    9   32 1
  19   12   21 1
  20   12   33 1
  21   12   34 1
  22   13   14 1
  23   13   18 1
  24   13   20 2
  25   14   15 2
  26   14   35 1
  27   15   16 1
  28   15   36 1
  29   16   17 2
  30   16   22 1
  31   17   18 1
  32   18   21 1
  33   19   20 1
  34   19   21 2
  35   22   23 ar
  36   22   27 ar
  37   23   24 ar
  38   23   37 1
  39   24   25 ar
  40   24   38 1
  41   25   26 ar
  42   25   39 1
  43   26   27 ar
  44   26   40 1
  45   27   41 1
  46   28   42 1
  47   28   43 1
  48   28   44 1

#	End of record

