#	Name: ASD04570017
#	Creating user name:	WinNT
#	Creation time:	15. 06. 2019 20:49

#	Modifying user name:	WinNT
#	Modification time:	15. 06. 2019 20:49

#	Program:	/corina/corina34_cracker 3.40 0067  02.08.2006

@<TRIPOS>MOLECULE
ASD04570017
 358  359    0    0    0
SMALL
NO_CHARGES


@<TRIPOS>ATOM
   1 C1            -0.0187     1.5258     0.0104 C.3     
   2 C2             0.0021    -0.0041     0.0020 C.3     
   3 C3             0.7421    -0.5109     1.2415 C.3     
   4 C4             0.7628    -2.0407     1.2331 C.3     
   5 C5             1.5028    -2.5476     2.4727 C.3     
   6 C6             1.5236    -4.0774     2.4642 C.3     
   7 C7             2.2636    -4.5842     3.7038 C.3     
   8 C8             2.2843    -6.1141     3.6954 C.3     
   9 C9             3.0243    -6.6209     4.9349 C.3     
  10 C10            3.0450    -8.1508     4.9265 C.3     
  11 C11            3.7850    -8.6576     6.1660 C.3     
  12 C12            3.8058   -10.1874     6.1576 C.3     
  13 C13            4.5458   -10.6943     7.3971 C.3     
  14 C14            4.5665   -12.2241     7.3887 C.3     
  15 C15            5.3065   -12.7309     8.6282 C.3     
  16 C16            5.3270   -14.2378     8.6199 C.2     
  17 N17            5.9293   -14.9091     9.6215 N.am    
  18 O18            4.8014   -14.8464     7.7120 O.2     
  19 C19            5.9491   -16.3739     9.6134 C.3     
  20 H20            6.3496   -14.4223    10.3476 H       
  21 C21            6.0933   -16.8821    11.0248 C.2     
  22 C22            7.1296   -16.8633     8.7721 C.3     
  23 C23            6.9206   -16.4533     7.3129 C.3     
  24 S24            8.3202   -17.0336     6.3154 S.3     
  25 C25            7.8969   -16.4619     4.6467 C.3     
  26 N26            6.1350   -18.2081    11.2626 N.am    
  27 O27            6.1717   -16.0979    11.9466 O.2     
  28 C28            6.2752   -18.7021    12.6347 C.3     
  29 C29            6.2956   -20.2089    12.6264 C.2     
  30 N30            6.4176   -20.8876    13.7844 N.am    
  31 O31            6.2023   -20.8109    11.5777 O.2     
  32 C32            6.4374   -22.3524    13.7763 C.3     
  33 C33            7.8623   -22.8417    13.5096 C.3     
  34 C34            8.2836   -22.4296    12.1226 C.ar    
  35 C35            8.9111   -21.2136    11.9246 C.ar    
  36 N36            5.9071   -24.1958    15.3382 N.am    
  37 C37            5.9711   -22.8685    15.1132 C.2     
  38 C38            8.0470   -23.2708    11.0510 C.ar    
  39 C39            8.4326   -22.8956     9.7786 C.ar    
  40 C40            9.0576   -21.6736     9.5766 C.ar    
  41 C41            9.2982   -20.8336    10.6541 C.ar    
  42 O42            5.6534   -22.0894    15.9867 O.2     
  43 C43            5.4537   -24.6975    16.6378 C.3     
  44 O44            9.4383   -21.3024     8.3259 O.3     
  45 C45            6.6352   -24.7383    17.6090 C.3     
  46 C46            4.8916   -26.0859    16.4720 C.2     
  47 N47            4.4110   -26.7505    17.5415 N.am    
  48 O48            4.8715   -26.6051    15.3762 O.2     
  49 C49            7.1269   -23.3139    17.8741 C.3     
  50 C50            8.2906   -23.3541    18.8308 C.2     
  51 O51            8.6876   -24.4173    19.2585 O.2     
  52 N52            8.8902   -22.2085    19.2111 N.am    
  53 C53            3.8645   -28.1001    17.3804 C.3     
  54 C54            3.9704   -28.8550    18.7070 C.3     
  55 C55            2.4179   -28.0103    16.9676 C.2     
  56 C56            5.4448   -29.0552    19.0635 C.3     
  57 C57            5.5507   -29.8101    20.3901 C.3     
  58 C58            7.0250   -30.0103    20.7467 C.3     
  59 N59            7.1267   -30.7350    22.0204 N.3     
  60 N60            1.7054   -29.1353    16.7599 N.am    
  61 O61            1.8950   -26.9258    16.8223 O.2     
  62 C62            0.2991   -29.0480    16.3586 C.3     
  63 H63            1.0039     1.9031     0.0027 H       
  64 H64           -0.5459     1.8868    -0.8726 H       
  65 H65           -0.5289     1.8773     0.9072 H       
  66 H66           -1.0205    -0.3814     0.0098 H       
  67 H67            0.5123    -0.3556    -0.8948 H       
  68 H68            1.7647    -0.1336     1.2338 H       
  69 H69            0.2319    -0.1594     2.1383 H       
  70 H70           -0.2598    -2.4180     1.2409 H       
  71 H71            1.2730    -2.3923     0.3363 H       
  72 H72            2.5254    -2.1703     2.4649 H       
  73 H73            0.9926    -2.1961     3.3695 H       
  74 H74            0.5010    -4.4547     2.4720 H       
  75 H75            2.0337    -4.4289     1.5675 H       
  76 H76            3.2861    -4.2070     3.6960 H       
  77 H77            1.7534    -4.2327     4.6006 H       
  78 H78            1.2617    -6.4914     3.7031 H       
  79 H79            2.7945    -6.4656     2.7986 H       
  80 H80            4.0469    -6.2436     4.9271 H       
  81 H81            2.5141    -6.2694     5.8317 H       
  82 H82            2.0224    -8.5280     4.9342 H       
  83 H83            3.5552    -8.5023     4.0297 H       
  84 H84            4.8076    -8.2803     6.1583 H       
  85 H85            3.2748    -8.3061     7.0628 H       
  86 H86            2.7832   -10.5647     6.1653 H       
  87 H87            4.3160   -10.5389     5.2608 H       
  88 H88            5.5684   -10.3170     7.3894 H       
  89 H89            4.0356   -10.3427     8.2939 H       
  90 H90            3.5439   -12.6014     7.3964 H       
  91 H91            5.0767   -12.5756     6.4919 H       
  92 H92            6.3291   -12.3537     8.6205 H       
  93 H93            4.7963   -12.3794     9.5250 H       
  94 H94            5.0187   -16.7476     9.1859 H       
  95 H95            8.0516   -16.4182     9.1461 H       
  96 H96            7.1975   -17.9492     8.8382 H       
  97 H97            5.9986   -16.8984     6.9389 H       
  98 H98            6.8528   -15.3675     7.2468 H       
  99 H99            6.9505   -16.9068     4.3394 H       
 100 H100           7.8046   -15.3758     4.6473 H       
 101 H101           8.6812   -16.7595     3.9508 H       
 102 H102           6.0723   -18.8353    10.5253 H       
 103 H103           7.2056   -18.3285    13.0621 H       
 104 H104           5.4342   -18.3534    13.2341 H       
 105 H105           6.4922   -20.4061    14.6232 H       
 106 H106           5.7744   -22.7205    12.9934 H       
 107 H107           8.5404   -22.4019    14.2410 H       
 108 H108           7.8947   -23.9281    13.5915 H       
 109 H109           9.0984   -20.5601    12.7638 H       
 110 H110           6.1611   -24.8189    14.6395 H       
 111 H111           7.5607   -24.2221    11.2089 H       
 112 H112           8.2479   -23.5531     8.9420 H       
 113 H113           9.7846   -19.8818    10.4994 H       
 114 H114           4.6814   -24.0375    17.0327 H       
 115 H115           8.7617   -20.8134     7.8377 H       
 116 H116           6.3187   -25.1939    18.5473 H       
 117 H117           7.4431   -25.3265    17.1739 H       
 118 H118           4.4270   -26.3351    18.4180 H       
 119 H119           7.4434   -22.8583    16.9359 H       
 120 H120           6.3190   -22.7257    18.3093 H       
 121 H121           8.5727   -21.3582    18.8691 H       
 122 H122           9.6392   -22.2344    19.8269 H       
 123 H123           4.4288   -28.6315    16.6139 H       
 124 H124           3.4816   -28.2791    19.4927 H       
 125 H125           3.4844   -29.8260    18.6123 H       
 126 H126           5.9337   -29.6311    18.2778 H       
 127 H127           5.9308   -28.0842    19.1583 H       
 128 H128           5.0618   -29.2342    21.1759 H       
 129 H129           5.0647   -30.7811    20.2954 H       
 130 H130           7.5139   -30.5862    19.9609 H       
 131 H131           7.5110   -29.0392    20.8414 H       
 132 H132           8.0915   -30.8799    22.2780 H       
 133 H133           6.6256   -30.2531    22.7517 H       
 134 H134           2.1236   -30.0028    16.8761 H       
 135 H135           0.2237   -28.5103    15.4135 H       
 136 H136          -0.1075   -30.0522    16.2387 H       
 137 H137          -0.2651   -28.5167    17.1250 H       
 138 O138          25.5589    11.7534    43.3363 O.3     
 139 C139          25.3138    10.3458    43.3154 C.3     
 140 C140          23.8254    10.0836    43.5538 C.3     
 141 C141          23.3972    10.7491    44.8363 C.2     
 142 N142          23.9794    10.4037    46.0018 N.am    
 143 C143          23.5631    11.0507    47.2485 C.3     
 144 C144          24.6899    10.9884    48.2473 C.2     
 145 N145          24.5334    11.5243    49.4740 N.am    
 146 C146          25.6288    11.4638    50.4449 C.3     
 147 C147          25.0671    11.5398    51.8413 C.2     
 148 N148          25.8954    11.5018    52.9038 N.am    
 149 C149          25.3616    11.6864    54.2556 C.3     
 150 C150          25.3264    13.1564    54.5854 C.2     
 151 N151          24.8693    13.5672    55.7848 N.am    
 152 C152          24.8350    14.9963    56.1054 C.3     
 153 C153          24.8920    15.1772    57.6004 C.2     
 154 N154          24.8729    16.4163    58.1305 N.am    
 155 C155          24.9283    16.5922    59.5838 C.3     
 156 C156          24.2986    17.9101    59.9547 C.2     
 157 N157          24.2362    18.2872    61.2471 N.am    
 158 N158          23.0487    10.6288    42.4377 N.am    
 159 O159          22.5287    11.5954    44.8197 O.2     
 160 C160          22.3394    10.3274    47.8145 C.3     
 161 C161          21.1585    10.4971    46.8566 C.3     
 162 S162          19.7076     9.6396    47.5276 S.3     
 163 C163          18.4341     9.9500    46.2736 C.3     
 164 O164          25.7375    10.4560    47.9472 O.2     
 165 C165          26.5809    12.6388    50.2136 C.3     
 166 C166          27.0543    12.6328    48.7587 C.3     
 167 O167          25.8999    13.8648    50.4878 O.3     
 168 O168          23.8697    11.6351    52.0089 O.2     
 169 C169          26.2570    10.9595    55.2611 C.3     
 170 C170          26.1953     9.4753    55.0073 C.2     
 171 O171          26.8329     8.6269    55.8291 O.3     
 172 O172          25.5719     9.0490    54.0642 O.2     
 173 O173          25.7094    13.9699    53.7714 O.2     
 174 C174          23.5407    15.6089    55.5665 C.3     
 175 C175          23.5400    15.5368    54.0382 C.3     
 176 C176          22.2457    16.1495    53.4994 C.3     
 177 C177          22.2450    16.0774    51.9711 C.3     
 178 N178          21.0024    16.6656    51.4537 N.3     
 179 O179          24.9550    14.2079    58.3266 O.2     
 180 C180          26.3874    16.5767    60.0441 C.3     
 181 C181          26.9817    15.2164    59.7843 C.ar    
 182 C182          27.6012    14.9532    58.5765 C.ar    
 183 C183          28.1467    13.7071    58.3358 C.ar    
 184 C184          28.0726    12.7194    59.3072 C.ar    
 185 C185          27.4505    12.9860    60.5182 C.ar    
 186 C186          26.9115    14.2355    60.7561 C.ar    
 187 O187          28.6082    11.4926    59.0726 O.3     
 188 O188          23.8478    18.6314    59.0901 O.2     
 189 C189          23.6240    19.5684    61.6076 C.3     
 190 C190          22.1100    19.3912    61.7387 C.3     
 191 C191          24.1898    20.0435    62.9211 C.2     
 192 O192          25.0224    19.3775    63.4992 O.2     
 193 N193          23.7705    21.2085    63.4535 N.am    
 194 C194          24.3204    21.6704    64.7303 C.3     
 195 C195          23.5525    21.0422    65.8647 C.2     
 196 N196          23.8841    21.3236    67.1403 N.am    
 197 C197          26.5530    23.5430    64.0469 C.3     
 198 C198          25.0824    23.8347    63.7416 C.3     
 199 C199          24.2016    23.1934    64.8158 C.3     
 200 C200          24.8541    25.3475    63.7312 C.3     
 201 O201          22.6360    20.2834    65.6296 O.2     
 202 C202          21.5188    19.0297    60.3746 C.3     
 203 C203          20.0048    18.8525    60.5057 C.3     
 204 N204          19.4387    18.5064    59.1995 N.pl3   
 205 C205          18.0861    18.2972    59.0701 C.2     
 206 N206          17.5825    17.9892    57.9080 N.2     
 207 N207          17.2647    18.4128    60.1665 N.pl3   
 208 C208          22.8668     9.8956    41.3216 C.2     
 209 O209          23.3461     8.7844    41.2412 O.2     
 210 C210          22.0677    10.4564    40.1735 C.3     
 211 C211          20.6465    10.7692    40.6460 C.3     
 212 N212          22.0164     9.4737    39.0882 N.am    
 213 C213          19.8727    11.4530    39.5171 C.3     
 214 C214          18.4515    11.7658    39.9896 C.3     
 215 N215          17.7105    12.4206    38.9086 N.pl3   
 216 C216          16.4027    12.7979    39.1020 C.2     
 217 N217          15.8220    12.5730    40.2470 N.2     
 218 N218          15.7073    13.4123    38.0876 N.pl3   
 219 C219          21.8226     9.8816    37.8184 C.2     
 220 O220          21.6907    11.0623    37.5742 O.2     
 221 C221          21.7697     8.8708    36.7020 C.3     
 222 N222          21.5506     9.5540    35.4187 N.am    
 223 C223          20.3021     9.0474    34.8205 C.3     
 224 C224          19.4737     8.5202    36.0187 C.3     
 225 C225          20.5809     7.9110    36.9188 C.3     
 226 C226          22.3572    10.4892    34.8790 C.2     
 227 C227          22.0086    11.1090    33.5503 C.3     
 228 O228          23.3635    10.8321    35.4627 O.2     
 229 C229          21.9409    10.0173    32.4805 C.3     
 230 N230          23.0346    12.0886    33.1842 N.am    
 231 C231          21.4660    10.6264    31.1597 C.3     
 232 C232          21.5172     9.5635    30.0604 C.3     
 233 C233          20.0294    11.1286    31.3170 C.3     
 234 C234          22.7304    13.1038    32.3516 C.2     
 235 O235          21.6073    13.2064    31.9054 O.2     
 236 C236          23.7858    14.1114    31.9749 C.3     
 237 C237          23.1837    15.1503    31.0266 C.3     
 238 C238          24.9468    13.3981    31.2793 C.3     
 239 C239          24.2178    16.2417    30.7430 C.3     
 240 C240          23.6157    17.2806    29.7947 C.3     
 241 C241          24.6497    18.3720    29.5111 C.3     
 242 N242          24.0717    19.3694    28.6006 N.3     
 243 H243          26.4843    11.9938    43.1915 H       
 244 H244          25.6033     9.9409    42.3457 H       
 245 H245          25.8978     9.8636    44.0994 H       
 246 H246          23.6527     9.0098    43.6264 H       
 247 H247          24.6740     9.7268    46.0150 H       
 248 H248          23.3102    12.0923    47.0505 H       
 249 H249          23.6956    11.9501    49.7140 H       
 250 H250          26.1717    10.5266    50.3222 H       
 251 H251          26.8449    11.3523    52.7735 H       
 252 H252          24.3522    11.2783    54.3065 H       
 253 H253          24.5629    12.9166    56.4359 H       
 254 H254          25.6903    15.4922    55.6465 H       
 255 H255          24.8225    17.1915    57.5497 H       
 256 H256          24.3856    15.7809    60.0690 H       
 257 H257          24.5967    17.7103    61.9386 H       
 258 H258          22.6653    11.5175    42.5021 H       
 259 H259          22.5648     9.2672    47.9292 H       
 260 H260          22.0835    10.7516    48.7854 H       
 261 H261          20.9331    11.5573    46.7418 H       
 262 H262          21.4144    10.0729    45.8856 H       
 263 H263          18.2768    11.0239    46.1735 H       
 264 H264          18.7581     9.5395    45.3173 H       
 265 H265          17.5020     9.4730    46.5766 H       
 266 H266          27.4414    12.5451    50.8760 H       
 267 H267          26.1938    12.7266    48.0962 H       
 268 H268          27.7326    13.4700    48.5938 H       
 269 H269          27.5737    11.6977    48.5494 H       
 270 H270          26.4444    14.6540    50.3617 H       
 271 H271          27.2846    11.3049    55.1486 H       
 272 H272          25.9117    11.1697    56.2733 H       
 273 H273          26.7645     7.6839    55.6259 H       
 274 H274          22.6867    15.0554    55.9568 H       
 275 H275          23.4732    16.6504    55.8812 H       
 276 H276          24.3940    16.0904    53.6480 H       
 277 H277          23.6075    14.4954    53.7236 H       
 278 H278          21.3917    15.5959    53.8896 H       
 279 H279          22.1782    17.1909    53.8140 H       
 280 H280          23.0991    16.6309    51.5808 H       
 281 H281          22.3126    15.0360    51.6564 H       
 282 H282          20.8846    17.6114    51.7850 H       
 283 H283          20.9778    16.6300    50.4456 H       
 284 H284          26.9502    17.3303    59.4934 H       
 285 H285          26.4341    16.7958    61.1109 H       
 286 H286          27.6583    15.7224    57.8205 H       
 287 H287          28.6302    13.5019    57.3921 H       
 288 H288          27.3915    12.2187    61.2759 H       
 289 H289          26.4274    14.4436    61.6989 H       
 290 H290          29.5337    11.4097    59.3403 H       
 291 H291          23.8380    20.3042    60.8325 H       
 292 H292          21.8978    18.5927    62.4497 H       
 293 H293          21.6647    20.3209    62.0929 H       
 294 H294          23.1045    21.7412    62.9911 H       
 295 H295          25.3697    21.3834    64.7991 H       
 296 H296          24.6171    21.9305    67.3283 H       
 297 H297          23.3898    20.9193    67.8704 H       
 298 H298          26.7156    22.4652    64.0544 H       
 299 H299          27.1805    23.9999    63.2817 H       
 300 H300          26.8105    23.9560    65.0222 H       
 301 H301          24.8249    23.4217    62.7663 H       
 302 H302          23.1637    23.4863    64.6571 H       
 303 H303          24.5272    23.5286    65.8005 H       
 304 H304          25.1922    25.7726    64.6763 H       
 305 H305          25.4155    25.7941    62.9105 H       
 306 H306          23.7919    25.5538    63.5994 H       
 307 H307          21.7310    19.8281    59.6636 H       
 308 H308          21.9641    18.1000    60.0205 H       
 309 H309          19.7926    18.0541    61.2167 H       
 310 H310          19.5595    19.7822    60.8598 H       
 311 H311          20.0183    18.4248    58.4260 H       
 312 H312          16.6281    17.8416    57.8168 H       
 313 H313          17.6394    18.6419    61.0313 H       
 314 H314          16.3103    18.2652    60.0752 H       
 315 H315          22.5405    11.3704    39.8140 H       
 316 H316          20.1432     9.8426    40.9221 H       
 317 H317          20.6886    11.4314    41.5107 H       
 318 H318          22.1218     8.5294    39.2835 H       
 319 H319          20.3760    12.3796    39.2410 H       
 320 H320          19.8306    10.7908    38.6524 H       
 321 H321          17.9482    10.8392    40.2657 H       
 322 H322          18.4936    12.4281    40.8543 H       
 323 H323          18.1426    12.5879    38.0565 H       
 324 H324          14.8993    12.8391    40.3835 H       
 325 H325          16.1394    13.5797    37.2354 H       
 326 H326          14.7846    13.6785    38.2240 H       
 327 H327          22.7023     8.3076    36.6676 H       
 328 H328          19.7689     9.8532    34.3160 H       
 329 H329          20.5169     8.2382    34.1226 H       
 330 H330          18.9609     9.3360    36.5282 H       
 331 H331          18.7661     7.7556    35.6981 H       
 332 H332          20.8340     6.9031    36.5900 H       
 333 H333          20.2713     7.9105    37.9640 H       
 334 H334          21.0414    11.6061    33.6239 H       
 335 H335          22.9301     9.5803    32.3442 H       
 336 H336          21.2417     9.2427    32.7955 H       
 337 H337          23.9328    12.0065    33.5410 H       
 338 H338          22.1147    11.4597    30.8898 H       
 339 H339          20.8685     8.7301    30.3302 H       
 340 H340          21.1789     9.9974    29.1194 H       
 341 H341          22.5407     9.2057    29.9483 H       
 342 H342          19.9929    11.8858    32.1002 H       
 343 H343          19.6911    11.5625    30.3761 H       
 344 H344          19.3807    10.2952    31.5869 H       
 345 H345          24.1509    14.6084    32.8738 H       
 346 H346          22.8995    14.6673    30.0917 H       
 347 H347          22.3024    15.5958    31.4880 H       
 348 H348          25.7102    14.1269    31.0068 H       
 349 H349          25.3757    12.6580    31.9548 H       
 350 H350          24.5817    12.9011    30.3804 H       
 351 H351          24.5020    16.7247    31.6779 H       
 352 H352          25.0991    15.7962    30.2816 H       
 353 H353          23.3315    16.7975    28.8598 H       
 354 H354          22.7344    17.7261    30.2561 H       
 355 H355          24.9340    18.8550    30.4460 H       
 356 H356          25.5311    17.9265    29.0497 H       
 357 H357          24.7357    20.1015    28.3977 H       
 358 H358          23.7412    18.9355    27.7517 H       
@<TRIPOS>BOND
   1    1    2 1
   2    1   63 1
   3    1   64 1
   4    1   65 1
   5    2    3 1
   6    2   66 1
   7    2   67 1
   8    3    4 1
   9    3   68 1
  10    3   69 1
  11    4    5 1
  12    4   70 1
  13    4   71 1
  14    5    6 1
  15    5   72 1
  16    5   73 1
  17    6    7 1
  18    6   74 1
  19    6   75 1
  20    7    8 1
  21    7   76 1
  22    7   77 1
  23    8    9 1
  24    8   78 1
  25    8   79 1
  26    9   10 1
  27    9   80 1
  28    9   81 1
  29   10   11 1
  30   10   82 1
  31   10   83 1
  32   11   12 1
  33   11   84 1
  34   11   85 1
  35   12   13 1
  36   12   86 1
  37   12   87 1
  38   13   14 1
  39   13   88 1
  40   13   89 1
  41   14   15 1
  42   14   90 1
  43   14   91 1
  44   15   16 1
  45   15   92 1
  46   15   93 1
  47   16   17 am
  48   16   18 2
  49   17   19 1
  50   17   20 1
  51   19   21 1
  52   19   22 1
  53   19   94 1
  54   21   26 am
  55   21   27 2
  56   22   23 1
  57   22   95 1
  58   22   96 1
  59   23   24 1
  60   23   97 1
  61   23   98 1
  62   24   25 1
  63   25   99 1
  64   25  100 1
  65   25  101 1
  66   26   28 1
  67   26  102 1
  68   28   29 1
  69   28  103 1
  70   28  104 1
  71   29   30 am
  72   29   31 2
  73   30   32 1
  74   30  105 1
  75   32   33 1
  76   32   37 1
  77   32  106 1
  78   33   34 1
  79   33  107 1
  80   33  108 1
  81   34   35 ar
  82   34   38 ar
  83   35   41 ar
  84   35  109 1
  85   36   37 am
  86   36   43 1
  87   36  110 1
  88   37   42 2
  89   38   39 ar
  90   38  111 1
  91   39   40 ar
  92   39  112 1
  93   40   41 ar
  94   40   44 1
  95   41  113 1
  96   43   45 1
  97   43   46 1
  98   43  114 1
  99   44  115 1
 100   45   49 1
 101   45  116 1
 102   45  117 1
 103   46   47 am
 104   46   48 2
 105   47   53 1
 106   47  118 1
 107   49   50 1
 108   49  119 1
 109   49  120 1
 110   50   51 2
 111   50   52 am
 112   52  121 1
 113   52  122 1
 114   53   54 1
 115   53   55 1
 116   53  123 1
 117   54   56 1
 118   54  124 1
 119   54  125 1
 120   55   60 am
 121   55   61 2
 122   56   57 1
 123   56  126 1
 124   56  127 1
 125   57   58 1
 126   57  128 1
 127   57  129 1
 128   58   59 1
 129   58  130 1
 130   58  131 1
 131   59  132 1
 132   59  133 1
 133   60   62 1
 134   60  134 1
 135   62  135 1
 136   62  136 1
 137   62  137 1
 138  138  139 1
 139  138  243 1
 140  139  140 1
 141  139  244 1
 142  139  245 1
 143  140  141 1
 144  140  158 1
 145  140  246 1
 146  141  142 am
 147  141  159 2
 148  142  143 1
 149  142  247 1
 150  143  144 1
 151  143  160 1
 152  143  248 1
 153  144  145 am
 154  144  164 2
 155  145  146 1
 156  145  249 1
 157  146  147 1
 158  146  165 1
 159  146  250 1
 160  147  148 am
 161  147  168 2
 162  148  149 1
 163  148  251 1
 164  149  150 1
 165  149  169 1
 166  149  252 1
 167  150  151 am
 168  150  173 2
 169  151  152 1
 170  151  253 1
 171  152  153 1
 172  152  174 1
 173  152  254 1
 174  153  154 am
 175  153  179 2
 176  154  155 1
 177  154  255 1
 178  155  156 1
 179  155  180 1
 180  155  256 1
 181  156  157 am
 182  156  188 2
 183  157  189 1
 184  157  257 1
 185  158  208 am
 186  158  258 1
 187  160  161 1
 188  160  259 1
 189  160  260 1
 190  161  162 1
 191  161  261 1
 192  161  262 1
 193  162  163 1
 194  163  263 1
 195  163  264 1
 196  163  265 1
 197  165  166 1
 198  165  167 1
 199  165  266 1
 200  166  267 1
 201  166  268 1
 202  166  269 1
 203  167  270 1
 204  169  170 1
 205  169  271 1
 206  169  272 1
 207  170  171 1
 208  170  172 2
 209  171  273 1
 210  174  175 1
 211  174  274 1
 212  174  275 1
 213  175  176 1
 214  175  276 1
 215  175  277 1
 216  176  177 1
 217  176  278 1
 218  176  279 1
 219  177  178 1
 220  177  280 1
 221  177  281 1
 222  178  282 1
 223  178  283 1
 224  180  181 1
 225  180  284 1
 226  180  285 1
 227  181  182 ar
 228  181  186 ar
 229  182  183 ar
 230  182  286 1
 231  183  184 ar
 232  183  287 1
 233  184  185 ar
 234  184  187 1
 235  185  186 ar
 236  185  288 1
 237  186  289 1
 238  187  290 1
 239  189  190 1
 240  189  191 1
 241  189  291 1
 242  190  202 1
 243  190  292 1
 244  190  293 1
 245  191  192 2
 246  191  193 am
 247  193  194 1
 248  193  294 1
 249  194  195 1
 250  194  199 1
 251  194  295 1
 252  195  196 am
 253  195  201 2
 254  196  296 1
 255  196  297 1
 256  197  198 1
 257  197  298 1
 258  197  299 1
 259  197  300 1
 260  198  199 1
 261  198  200 1
 262  198  301 1
 263  199  302 1
 264  199  303 1
 265  200  304 1
 266  200  305 1
 267  200  306 1
 268  202  203 1
 269  202  307 1
 270  202  308 1
 271  203  204 1
 272  203  309 1
 273  203  310 1
 274  204  205 1
 275  204  311 1
 276  205  206 2
 277  205  207 1
 278  206  312 1
 279  207  313 1
 280  207  314 1
 281  208  209 2
 282  208  210 1
 283  210  211 1
 284  210  212 1
 285  210  315 1
 286  211  213 1
 287  211  316 1
 288  211  317 1
 289  212  219 am
 290  212  318 1
 291  213  214 1
 292  213  319 1
 293  213  320 1
 294  214  215 1
 295  214  321 1
 296  214  322 1
 297  215  216 1
 298  215  323 1
 299  216  217 2
 300  216  218 1
 301  217  324 1
 302  218  325 1
 303  218  326 1
 304  219  220 2
 305  219  221 1
 306  221  222 1
 307  221  225 1
 308  221  327 1
 309  222  223 1
 310  222  226 am
 311  223  224 1
 312  223  328 1
 313  223  329 1
 314  224  225 1
 315  224  330 1
 316  224  331 1
 317  225  332 1
 318  225  333 1
 319  226  227 1
 320  226  228 2
 321  227  229 1
 322  227  230 1
 323  227  334 1
 324  229  231 1
 325  229  335 1
 326  229  336 1
 327  230  234 am
 328  230  337 1
 329  231  232 1
 330  231  233 1
 331  231  338 1
 332  232  339 1
 333  232  340 1
 334  232  341 1
 335  233  342 1
 336  233  343 1
 337  233  344 1
 338  234  235 2
 339  234  236 1
 340  236  237 1
 341  236  238 1
 342  236  345 1
 343  237  239 1
 344  237  346 1
 345  237  347 1
 346  238  348 1
 347  238  349 1
 348  238  350 1
 349  239  240 1
 350  239  351 1
 351  239  352 1
 352  240  241 1
 353  240  353 1
 354  240  354 1
 355  241  242 1
 356  241  355 1
 357  241  356 1
 358  242  357 1
 359  242  358 1

#	End of record

