#	Name: ASD02508291
#	Creating user name:	WinNT
#	Creation time:	15. 06. 2019 20:24

#	Modifying user name:	WinNT
#	Modification time:	15. 06. 2019 20:24

#	Program:	/corina/corina34_cracker 3.40 0067  02.08.2006

@<TRIPOS>MOLECULE
ASD02508291
  26   26    0    0    0
SMALL
NO_CHARGES


@<TRIPOS>ATOM
   1 C1            -0.0167     1.3782     0.0096 C.ar    
   2 C2             0.0021    -0.0041     0.0020 C.ar    
   3 C3             1.2069    -0.6820    -0.0131 C.ar    
   4 C4             2.3981     0.0193    -0.0203 C.ar    
   5 C5             2.3864     1.4049    -0.0127 C.ar    
   6 C6             1.1738     2.0873     0.0021 C.ar    
   7 O7             5.7795     3.4556    -0.0315 O.2     
   8 C8             5.9495     2.2594    -0.0394 C.2     
   9 C9             4.7634     1.3298    -0.0340 C.3     
  10 O10            3.5575     2.0963    -0.0193 O.3     
  11 O11            1.1571     3.4471     0.0091 O.3     
  12 C12           -0.1240     4.0801     0.0242 C.3     
  13 C13            0.0551     5.5764     0.0301 C.2     
  14 O14            1.1658     6.0519     0.0221 O.2     
  15 O15           -1.0193     6.3809     0.0442 O.3     
  16 O16            7.1947     1.7585    -0.0531 O.3     
  17 H17           -0.9592     1.9054     0.0170 H       
  18 H18           -0.9265    -0.5556     0.0083 H       
  19 H19            1.2174    -1.7620    -0.0190 H       
  20 H20            3.3379    -0.5127    -0.0314 H       
  21 H21            4.7865     0.7060    -0.9276 H       
  22 H22            4.8022     0.6965     0.8523 H       
  23 H23           -0.6856     3.7849    -0.8620 H       
  24 H24           -0.6690     3.7759     0.9178 H       
  25 H25           -0.8543     7.3337     0.0475 H       
  26 H26            7.9235     2.3941    -0.0560 H       
@<TRIPOS>BOND
   1    1    2 ar
   2    1    6 ar
   3    1   17 1
   4    2    3 ar
   5    2   18 1
   6    3    4 ar
   7    3   19 1
   8    4    5 ar
   9    4   20 1
  10    5    6 ar
  11    5   10 1
  12    6   11 1
  13    7    8 2
  14    8    9 1
  15    8   16 1
  16    9   10 1
  17    9   21 1
  18    9   22 1
  19   11   12 1
  20   12   13 1
  21   12   23 1
  22   12   24 1
  23   13   14 2
  24   13   15 1
  25   15   25 1
  26   16   26 1

#	End of record

