#	Name: ASD08170225
#	Creating user name:	WinNT
#	Creation time:	15. 06. 2019 21:17

#	Modifying user name:	WinNT
#	Modification time:	15. 06. 2019 21:17

#	Program:	/corina/corina34_cracker 3.40 0067  02.08.2006

@<TRIPOS>MOLECULE
ASD08170225
  88   92    0    0    0
SMALL
NO_CHARGES


@<TRIPOS>ATOM
   1 N1            -3.7609    -0.6721     0.1116 N.2     
   2 N2            -3.4768    -1.8977     0.0062 N.2     
   3 C3            -2.7913     0.1513     0.3742 C.2     
   4 S4            -1.3341    -0.7400     0.5042 S.3     
   5 C5            -2.2334    -2.2206     0.1715 C.2     
   6 C6            -1.6585    -3.6115     0.0946 C.3     
   7 C7            -1.2295    -3.9072    -1.3439 C.3     
   8 C8            -0.0946    -5.7437    -3.1881 C.3     
   9 C9             0.5134    -7.1259    -3.4346 C.3     
  10 C10            0.8813    -7.2607    -4.8897 C.2     
  11 N11            2.0197    -6.9474    -5.4221 N.2     
  12 S12           -0.1586    -7.8806    -6.1727 S.3     
  13 C13            1.1082    -7.6238    -7.2970 C.2     
  14 N14            2.1327    -7.1352    -6.6654 N.2     
  15 N15            1.0511    -7.8982    -8.6592 N.am    
  16 C16            2.1200    -7.6506    -9.4419 C.2     
  17 O17            3.1317    -7.1886    -8.9582 O.2     
  18 C18            2.0581    -7.9480   -10.9179 C.3     
  19 N19           -2.9155     1.5283     0.5248 N.am    
  20 C20            0.9517    -7.1411   -11.5469 C.ar    
  21 C21           -4.1228     2.1138     0.3986 C.2     
  22 C22           -4.2574     3.6059     0.5618 C.3     
  23 O23           -5.1010     1.4399     0.1537 O.2     
  24 C24            0.7798    -5.8144   -11.1987 C.ar    
  25 C25           -5.6987     4.0038     0.3738 C.ar    
  26 C26           -6.5529     4.0406     1.4599 C.ar    
  27 S27           -0.5375    -5.5815    -1.4365 S.3     
  28 C28           -7.8750     4.4056     1.2874 C.ar    
  29 C29           -8.3428     4.7342     0.0288 C.ar    
  30 C30           -7.4883     4.6982    -1.0572 C.ar    
  31 C31           -6.1651     4.3375    -0.8840 C.ar    
  32 C32            0.1121    -7.7260   -12.4764 C.ar    
  33 C33           -0.9029    -6.9859   -13.0533 C.ar    
  34 C34           -1.0786    -5.6609   -12.7005 C.ar    
  35 C35           -0.2352    -5.0743   -11.7757 C.ar    
  36 N36            3.3392    -7.5931   -11.5431 N.3     
  37 C37            4.4312    -8.4197   -11.0117 C.3     
  38 C38            5.7093    -8.1478   -11.8122 C.3     
  39 N39            5.9656    -6.6995   -11.8053 N.am    
  40 C40            4.8714    -5.7973   -12.1949 C.3     
  41 C41            3.6263    -6.1617   -11.3793 C.3     
  42 C42            7.1714    -6.2121   -11.4518 C.2     
  43 O43            8.0643    -6.9722   -11.1332 O.2     
  44 O44            7.3867    -4.8831   -11.4518 O.3     
  45 C45            8.7092    -4.4295   -11.0600 C.3     
  46 C46            9.7525    -5.0149   -12.0138 C.3     
  47 C47            8.7630    -2.9016   -11.1207 C.3     
  48 C48            9.0056    -4.8940    -9.6327 C.3     
  49 H49           -0.7935    -3.6841     0.7539 H       
  50 H50           -2.4132    -4.3343     0.4046 H       
  51 H51           -2.0945    -3.8346    -2.0032 H       
  52 H52           -0.4748    -3.1845    -1.6539 H       
  53 H53            0.6317    -4.9750    -3.4519 H       
  54 H54           -0.9880    -5.6252    -3.8012 H       
  55 H55            1.4067    -7.2444    -2.8214 H       
  56 H56           -0.2130    -7.8946    -3.1707 H       
  57 H57            0.2420    -8.2678    -9.0460 H       
  58 H58            1.8631    -9.0100   -11.0668 H       
  59 H59           -2.1332     2.0673     0.7207 H       
  60 H60           -3.9285     3.8933     1.5605 H       
  61 H61           -3.6412     4.1099    -0.1828 H       
  62 H62            1.4383    -5.3563   -10.4755 H       
  63 H63           -6.1875     3.7839     2.4433 H       
  64 H64           -8.5426     4.4337     2.1359 H       
  65 H65           -9.3759     5.0187    -0.1061 H       
  66 H66           -7.8538     4.9546    -2.0406 H       
  67 H67           -5.4976     4.3094    -1.7325 H       
  68 H68            0.2494    -8.7612   -12.7520 H       
  69 H69           -1.5584    -7.4427   -13.7800 H       
  70 H70           -1.8714    -5.0826   -13.1515 H       
  71 H71           -0.3724    -4.0391   -11.5000 H       
  72 H72            4.5986    -8.1713    -9.9637 H       
  73 H73            4.1650    -9.4732   -11.0982 H       
  74 H74            6.5478    -8.6703   -11.3518 H       
  75 H75            5.5788    -8.4917   -12.8383 H       
  76 H76            5.1559    -4.7657   -11.9874 H       
  77 H77            4.6603    -5.9152   -13.2577 H       
  78 H78            2.7764    -5.5776   -11.7324 H       
  79 H79            3.8049    -5.9447   -10.3262 H       
  80 H80            9.5413    -4.6839   -13.0307 H       
  81 H81           10.7453    -4.6744   -11.7197 H       
  82 H82            9.7141    -6.1033   -11.9706 H       
  83 H83            8.0198    -2.4846   -10.4411 H       
  84 H84            9.7558    -2.5611   -10.8265 H       
  85 H85            8.5519    -2.5707   -12.1375 H       
  86 H86            8.9672    -5.9825    -9.5895 H       
  87 H87            9.9984    -4.5535    -9.3386 H       
  88 H88            8.2623    -4.4770    -8.9531 H       
@<TRIPOS>BOND
   1    1    2 1
   2    1    3 2
   3    2    5 2
   4    3    4 1
   5    3   19 1
   6    4    5 1
   7    5    6 1
   8    6    7 1
   9    6   49 1
  10    6   50 1
  11    7   27 1
  12    7   51 1
  13    7   52 1
  14    8    9 1
  15    8   27 1
  16    8   53 1
  17    8   54 1
  18    9   10 1
  19    9   55 1
  20    9   56 1
  21   10   11 2
  22   10   12 1
  23   11   14 1
  24   12   13 1
  25   13   14 2
  26   13   15 1
  27   15   16 am
  28   15   57 1
  29   16   17 2
  30   16   18 1
  31   18   20 1
  32   18   36 1
  33   18   58 1
  34   19   21 am
  35   19   59 1
  36   20   32 ar
  37   20   24 ar
  38   21   22 1
  39   21   23 2
  40   22   25 1
  41   22   60 1
  42   22   61 1
  43   24   35 ar
  44   24   62 1
  45   25   26 ar
  46   25   31 ar
  47   26   28 ar
  48   26   63 1
  49   28   29 ar
  50   28   64 1
  51   29   30 ar
  52   29   65 1
  53   30   31 ar
  54   30   66 1
  55   31   67 1
  56   32   33 ar
  57   32   68 1
  58   33   34 ar
  59   33   69 1
  60   34   35 ar
  61   34   70 1
  62   35   71 1
  63   36   37 1
  64   36   41 1
  65   37   38 1
  66   37   72 1
  67   37   73 1
  68   38   39 1
  69   38   74 1
  70   38   75 1
  71   39   40 1
  72   39   42 am
  73   40   41 1
  74   40   76 1
  75   40   77 1
  76   41   78 1
  77   41   79 1
  78   42   43 2
  79   42   44 1
  80   44   45 1
  81   45   46 1
  82   45   47 1
  83   45   48 1
  84   46   80 1
  85   46   81 1
  86   46   82 1
  87   47   83 1
  88   47   84 1
  89   47   85 1
  90   48   86 1
  91   48   87 1
  92   48   88 1

#	End of record

