#	Name: ASD03490037
#	Creating user name:	WinNT
#	Creation time:	15. 06. 2019 20:42

#	Modifying user name:	WinNT
#	Modification time:	15. 06. 2019 20:42

#	Program:	/corina/corina34_cracker 3.40 0067  02.08.2006

@<TRIPOS>MOLECULE
ASD03490037
  66   66    0    0    0
SMALL
NO_CHARGES


@<TRIPOS>ATOM
   1 O1            -0.5646     1.7474     0.8300 O.3     
   2 C2            -0.3450     0.4233     0.8099 C.2     
   3 C3            -1.4831    -0.5251     0.5337 C.3     
   4 O4             0.7652    -0.0081     1.0132 O.2     
   5 O5            -1.0275    -1.8716     0.6801 O.3     
   6 C6            -2.6201    -0.2603     1.5241 C.3     
   7 O7            -1.9576    -0.3248    -0.7993 O.3     
   8 C8            -3.0260    -1.1961    -1.1754 C.3     
   9 C9            -4.2251    -0.9581    -0.2539 C.3     
  10 C10           -3.7960    -1.1866     1.1990 C.3     
  11 C11           -3.4307    -0.9117    -2.6232 C.3     
  12 C12           -2.2871    -1.3071    -3.5595 C.3     
  13 C13           -2.7366    -1.1402    -5.0124 C.3     
  14 O14           -1.6954    -1.6264    -5.9001 O.3     
  15 O15           -1.1568    -0.4688    -3.3113 O.3     
  16 C16           -4.7206     0.4798    -0.4207 C.3     
  17 O17           -5.7649     0.7360     0.5205 O.3     
  18 O18           -3.3944    -2.5472     1.3705 O.3     
  19 C19           -1.9343    -1.5504    -7.2187 C.2     
  20 O20           -2.9789    -1.0929    -7.6181 O.2     
  21 C21           -0.8998    -2.0359    -8.2011 C.3     
  22 N22           -1.1537    -1.4342    -9.5170 N.3     
  23 C23           -0.9785    -3.5597    -8.3134 C.3     
  24 C24            0.1512    -4.0638    -9.2137 C.3     
  25 C25            0.0725    -5.5877    -9.3260 C.3     
  26 N26            1.1542    -6.0703   -10.1881 N.pl3   
  27 C27            1.2859    -7.4159   -10.4375 C.2     
  28 N28            2.3011    -7.8689   -11.2466 N.pl3   
  29 N29            0.4485    -8.2622    -9.9070 N.2     
  30 N30           -5.2328     0.6651    -1.7807 N.am    
  31 O31           -4.3318     2.6879    -1.9170 O.2     
  32 C32           -4.9817     1.8106    -2.4450 C.2     
  33 C33           -5.5085     2.0012    -3.8440 C.3     
  34 H34            0.1963     2.3159     1.0115 H       
  35 H35           -0.3060    -2.1100     0.0820 H       
  36 H36           -2.2724    -0.4554     2.5385 H       
  37 H37           -2.9407     0.7782     1.4413 H       
  38 H38           -2.6988    -2.2320    -1.0860 H       
  39 H39           -5.0253    -1.6522    -0.5107 H       
  40 H40           -4.6300    -0.9645     1.8647 H       
  41 H41           -4.3205    -1.4901    -2.8720 H       
  42 H42           -3.6440     0.1509    -2.7388 H       
  43 H43           -2.0142    -2.3472    -3.3808 H       
  44 H44           -3.6506    -1.7106    -5.1778 H       
  45 H45           -2.9244    -0.0859    -5.2158 H       
  46 H46           -1.3272     0.4728    -3.4508 H       
  47 H47           -3.8961     1.1709    -0.2456 H       
  48 H48           -6.5629     0.2093     0.3757 H       
  49 H49           -3.1094    -2.7630     2.2690 H       
  50 H50            0.0930    -1.7478    -7.8554 H       
  51 H51           -2.0686    -1.6866    -9.8595 H       
  52 H52           -1.0440    -0.4317    -9.4835 H       
  53 H53           -0.8785    -4.0027    -7.3225 H       
  54 H54           -1.9394    -3.8433    -8.7428 H       
  55 H55            0.0512    -3.6209   -10.2046 H       
  56 H56            1.1121    -3.7803    -8.7843 H       
  57 H57            0.1725    -6.0306    -8.3351 H       
  58 H58           -0.8884    -5.8712    -9.7554 H       
  59 H59            1.7774    -5.4406   -10.5829 H       
  60 H60            2.9243    -7.2391   -11.6414 H       
  61 H61            2.3940    -8.8182   -11.4226 H       
  62 H62            0.5415    -9.2115   -10.0830 H       
  63 H63           -5.7525    -0.0366    -2.2030 H       
  64 H64           -6.5964     1.9353    -3.8347 H       
  65 H65           -5.2070     2.9807    -4.2155 H       
  66 H66           -5.1030     1.2257    -4.4938 H       
@<TRIPOS>BOND
   1    1    2 1
   2    1   34 1
   3    2    3 1
   4    2    4 2
   5    3    5 1
   6    3    6 1
   7    3    7 1
   8    5   35 1
   9    6   10 1
  10    6   36 1
  11    6   37 1
  12    7    8 1
  13    8    9 1
  14    8   11 1
  15    8   38 1
  16    9   10 1
  17    9   16 1
  18    9   39 1
  19   10   18 1
  20   10   40 1
  21   11   12 1
  22   11   41 1
  23   11   42 1
  24   12   13 1
  25   12   15 1
  26   12   43 1
  27   13   14 1
  28   13   44 1
  29   13   45 1
  30   14   19 1
  31   15   46 1
  32   16   17 1
  33   16   30 1
  34   16   47 1
  35   17   48 1
  36   18   49 1
  37   19   20 2
  38   19   21 1
  39   21   22 1
  40   21   23 1
  41   21   50 1
  42   22   51 1
  43   22   52 1
  44   23   24 1
  45   23   53 1
  46   23   54 1
  47   24   25 1
  48   24   55 1
  49   24   56 1
  50   25   26 1
  51   25   57 1
  52   25   58 1
  53   26   27 1
  54   26   59 1
  55   27   28 1
  56   27   29 2
  57   28   60 1
  58   28   61 1
  59   29   62 1
  60   30   32 am
  61   30   63 1
  62   31   32 2
  63   32   33 1
  64   33   64 1
  65   33   65 1
  66   33   66 1

#	End of record

