#	Name: ASD01814455
#	Creating user name:	WinNT
#	Creation time:	15. 06. 2019 19:32

#	Modifying user name:	WinNT
#	Modification time:	15. 06. 2019 19:32

#	Program:	/corina/corina34_cracker 3.40 0067  02.08.2006

@<TRIPOS>MOLECULE
ASD01814455
  57   62    0    0    0
SMALL
NO_CHARGES


@<TRIPOS>ATOM
   1 C1            -0.0167     1.3818     0.0096 C.ar    
   2 C2             0.0021    -0.0041     0.0020 C.ar    
   3 C3             1.1970    -0.6935    -0.0127 C.ar    
   4 C4             2.3990     0.0036    -0.0204 C.ar    
   5 C5             2.3750     1.4118    -0.0131 C.ar    
   6 C6             1.1663     2.0939     0.0022 C.ar    
   7 N7             3.6103    -0.6575    -0.0347 N.pl3   
   8 N8             4.7456    -0.0608    -0.0419 N.2     
   9 C9             4.8828     1.2398    -0.0366 C.2     
  10 C10            3.6771     2.1039    -0.0219 C.2     
  11 C11            6.0123     2.1723    -0.0425 C.2     
  12 N12            5.4768     3.4119    -0.0316 N.am    
  13 N13            4.0816     3.3386    -0.0196 N.2     
  14 C14            3.5988    -2.1224    -0.0414 C.3     
  15 C15            3.5818    -2.6181    -1.4645 C.ar    
  16 C16            4.7722    -2.8544    -2.1271 C.ar    
  17 C17            4.7598    -3.3083    -3.4315 C.ar    
  18 C18            3.5505    -3.5277    -4.0773 C.ar    
  19 C19            2.3569    -3.2899    -3.4092 C.ar    
  20 C20            2.3757    -2.8411    -2.1031 C.ar    
  21 O21            7.1981     1.8866    -0.0544 O.2     
  22 C22            6.2491     4.6568    -0.0324 C.3     
  23 N23            3.5347    -3.9879    -5.4013 N.pl3   
  24 C24            5.8946     5.4780    -1.2749 C.3     
  25 O25            6.6055     6.7173    -1.2439 O.3     
  26 C26            6.2939     7.5408    -0.1184 C.3     
  27 C27            6.6644     6.8025     1.1705 C.3     
  28 C28            5.9109     5.4698     1.2210 C.3     
  29 C29            2.4325    -4.2410    -6.1428 C.2     
  30 C30            2.8438    -4.6658    -7.3599 C.2     
  31 C31            4.2430    -4.6730    -7.3636 C.2     
  32 N32            4.6578    -4.2612    -6.1926 N.2     
  33 C33            6.2852     4.6970    -2.5312 C.3     
  34 H34           -0.9605     1.9069     0.0170 H       
  35 H35           -0.9294    -0.5506     0.0080 H       
  36 H36            1.1982    -1.7735    -0.0178 H       
  37 H37            1.1511     3.1738     0.0077 H       
  38 H38            4.4906    -2.4951     0.4625 H       
  39 H39            2.7107    -2.4812     0.4789 H       
  40 H40            5.7126    -2.6836    -1.6243 H       
  41 H41            5.6899    -3.4920    -3.9488 H       
  42 H42            1.4146    -3.4593    -3.9090 H       
  43 H43            1.4475    -2.6559    -1.5829 H       
  44 H44            7.3143     4.4258    -0.0402 H       
  45 H45            4.8225     5.6742    -1.2872 H       
  46 H46            6.8597     8.4704    -0.1803 H       
  47 H47            5.2269     7.7640    -0.1156 H       
  48 H48            7.7380     6.6148     1.1870 H       
  49 H49            6.3868     7.4107     2.0314 H       
  50 H50            4.8379     5.6587     1.2545 H       
  51 H51            6.2125     4.9138     2.1087 H       
  52 H52            1.4080    -4.1254    -5.8211 H       
  53 H53            2.2048    -4.9493    -8.1832 H       
  54 H54            4.8723    -4.9639    -8.1917 H       
  55 H55            5.7436     3.7513    -2.5541 H       
  56 H56            6.0327     5.2818    -3.4157 H       
  57 H57            7.3574     4.5014    -2.5188 H       
@<TRIPOS>BOND
   1    1    2 ar
   2    1    6 ar
   3    1   34 1
   4    2    3 ar
   5    2   35 1
   6    3    4 ar
   7    3   36 1
   8    4    5 ar
   9    4    7 1
  10    5    6 ar
  11    5   10 1
  12    6   37 1
  13    7    8 1
  14    7   14 1
  15    8    9 2
  16    9   10 1
  17    9   11 1
  18   10   13 2
  19   11   12 am
  20   11   21 2
  21   12   13 1
  22   12   22 1
  23   14   15 1
  24   14   38 1
  25   14   39 1
  26   15   16 ar
  27   15   20 ar
  28   16   17 ar
  29   16   40 1
  30   17   18 ar
  31   17   41 1
  32   18   19 ar
  33   18   23 1
  34   19   20 ar
  35   19   42 1
  36   20   43 1
  37   22   24 1
  38   22   28 1
  39   22   44 1
  40   23   29 1
  41   23   32 1
  42   24   25 1
  43   24   33 1
  44   24   45 1
  45   25   26 1
  46   26   27 1
  47   26   46 1
  48   26   47 1
  49   27   28 1
  50   27   48 1
  51   27   49 1
  52   28   50 1
  53   28   51 1
  54   29   30 2
  55   29   52 1
  56   30   31 1
  57   30   53 1
  58   31   32 2
  59   31   54 1
  60   33   55 1
  61   33   56 1
  62   33   57 1

#	End of record

