#	Name: ASD02408047
#	Creating user name:	WinNT
#	Creation time:	15. 06. 2019 20:21

#	Modifying user name:	WinNT
#	Modification time:	15. 06. 2019 20:21

#	Program:	/corina/corina34_cracker 3.40 0067  02.08.2006

@<TRIPOS>MOLECULE
ASD02408047
  44   46    0    0    0
SMALL
NO_CHARGES


@<TRIPOS>ATOM
   1 C1             2.0512    -0.3777    -0.7370 C.2     
   2 C2             2.6701    -1.3596    -1.3944 C.2     
   3 C3             2.6805     0.9742    -0.5191 C.3     
   4 C4             2.3251     1.8846    -1.6662 C.2     
   5 N5             2.7922     3.1481    -1.6636 N.am    
   6 N6             1.5792     1.4209    -2.6319 N.2     
   7 C7             1.2321     2.1838    -3.6764 C.2     
   8 C8             1.6805     3.5137    -3.7350 C.2     
   9 C9             2.4939     3.9904    -2.6751 C.2     
  10 N10            0.4467     1.6713    -4.6796 N.pl3   
  11 C11           -0.6836     0.7860    -4.3672 C.3     
  12 O12            2.9103     5.1360    -2.6756 O.2     
  13 S13            1.6324    -2.7787    -1.4482 S.3     
  14 C14            0.3796    -1.9338    -0.5483 C.2     
  15 C15            0.7849    -0.6926    -0.2751 C.2     
  16 C16           -0.5383    -0.5045    -5.1797 C.3     
  17 C17           -0.4045    -0.1558    -6.6639 C.3     
  18 C18            0.8498     0.6941    -6.8789 C.3     
  19 C19            0.7169     2.0027    -6.0852 C.3     
  20 C20           -0.2939    -1.4439    -7.4821 C.3     
  21 C21           -0.2857    -1.1017    -8.9733 C.3     
  22 O22           -0.1823    -2.3047    -9.7376 O.3     
  23 C23            1.3312     4.3616    -4.8349 C.1     
  24 N24            1.0541     5.0342    -5.7074 N.1     
  25 H25            3.6571    -1.2932    -1.8277 H       
  26 H26            2.3097     1.4017     0.4125 H       
  27 H27            3.7637     0.8660    -0.4633 H       
  28 H28            3.3467     3.4549    -0.9292 H       
  29 H29           -0.6797     0.5502    -3.3030 H       
  30 H30           -1.6186     1.2804    -4.6306 H       
  31 H31           -0.5739    -2.3540    -0.2644 H       
  32 H32            0.1745     0.0107     0.2719 H       
  33 H33            0.3504    -1.0433    -4.8511 H       
  34 H34           -1.4189    -1.1293    -5.0307 H       
  35 H35           -1.2824     0.4044    -6.9858 H       
  36 H36            1.7255     0.1441    -6.5343 H       
  37 H37            0.9572     0.9225    -7.9393 H       
  38 H38           -0.1038     2.5944    -6.4910 H       
  39 H39            1.6464     2.5678    -6.1540 H       
  40 H40            0.6300    -1.9608    -7.2229 H       
  41 H41           -1.1449    -2.0884    -7.2620 H       
  42 H42           -1.2096    -0.5847    -9.2326 H       
  43 H43            0.5653    -0.4571    -9.1935 H       
  44 H44           -0.1714    -2.1633   -10.6941 H       
@<TRIPOS>BOND
   1    1    2 2
   2    1    3 1
   3    1   15 1
   4    2   13 1
   5    2   25 1
   6    3    4 1
   7    3   26 1
   8    3   27 1
   9    4    5 1
  10    4    6 2
  11    5    9 am
  12    5   28 1
  13    6    7 1
  14    7    8 2
  15    7   10 1
  16    8    9 1
  17    8   23 1
  18    9   12 2
  19   10   11 1
  20   10   19 1
  21   11   16 1
  22   11   29 1
  23   11   30 1
  24   13   14 1
  25   14   15 2
  26   14   31 1
  27   15   32 1
  28   16   17 1
  29   16   33 1
  30   16   34 1
  31   17   18 1
  32   17   20 1
  33   17   35 1
  34   18   19 1
  35   18   36 1
  36   18   37 1
  37   19   38 1
  38   19   39 1
  39   20   21 1
  40   20   40 1
  41   20   41 1
  42   21   22 1
  43   21   42 1
  44   21   43 1
  45   22   44 1
  46   23   24 3

#	End of record

