#	Name: ASD01915996
#	Creating user name:	WinNT
#	Creation time:	15. 06. 2019 20:06

#	Modifying user name:	WinNT
#	Modification time:	15. 06. 2019 20:06

#	Program:	/corina/corina34_cracker 3.40 0067  02.08.2006

@<TRIPOS>MOLECULE
ASD01915996
  41   42    0    0    0
SMALL
NO_CHARGES


@<TRIPOS>ATOM
   1 C1            -0.0266     1.4142    -0.1085 C.ar    
   2 C2            -0.0018     0.0109    -0.0660 C.ar    
   3 N3            -1.1434    -0.6467    -0.0281 N.ar    
   4 C4            -2.3024    -0.0016    -0.0297 C.ar    
   5 C5            -3.5605    -0.7843     0.0138 C.2     
   6 N6            -4.7433    -0.1519     0.1464 N.am    
   7 O7            -3.5254    -1.9960    -0.0700 O.2     
   8 C8            -5.9933    -0.9112     0.0618 C.3     
   9 C9            -6.0184    -1.9762     1.1601 C.3     
  10 C10           -7.1796     0.0376     0.2443 C.3     
  11 C11           -6.0874    -1.5879    -1.3071 C.3     
  12 C12            1.1888     2.1703    -0.1510 C.1     
  13 C13            2.1852     2.7902    -0.1859 C.1     
  14 C14            3.4006     3.5463    -0.2284 C.ar    
  15 C15            3.3579     4.9425    -0.2704 C.ar    
  16 C16            5.8057     3.6268    -0.2699 C.ar    
  17 C17            4.5344     5.6649    -0.3113 C.ar    
  18 C18            5.7552     5.0086    -0.3113 C.ar    
  19 F19            4.4952     7.0147    -0.3519 F       
  20 N20           -2.3699     1.3225    -0.0687 N.ar    
  21 C21           -1.2756     2.0558    -0.1140 C.ar    
  22 C22            4.6377     2.8907    -0.2224 C.ar    
  23 F23            4.6889     1.5414    -0.1759 F       
  24 C24           -4.7789     1.2947     0.3750 C.3     
  25 H25            0.9380    -0.5213    -0.0647 H       
  26 H26           -5.9514    -1.4941     2.1353 H       
  27 H27           -6.9485    -2.5411     1.0972 H       
  28 H28           -5.1733    -2.6521     1.0301 H       
  29 H29           -7.1618     0.7963    -0.5381 H       
  30 H30           -8.1097    -0.5273     0.1814 H       
  31 H31           -7.1126     0.5197     1.2196 H       
  32 H32           -5.2422    -2.2639    -1.4371 H       
  33 H33           -7.0175    -2.1529    -1.3700 H       
  34 H34           -6.0695    -0.8292    -2.0895 H       
  35 H35            2.4074     5.4553    -0.2712 H       
  36 H36            6.7607     3.1224    -0.2705 H       
  37 H37            6.6717     5.5788    -0.3483 H       
  38 H38           -1.3385     3.1335    -0.1456 H       
  39 H39           -4.7117     1.8153    -0.5803 H       
  40 H40           -5.7130     1.5615     0.8693 H       
  41 H41           -3.9385     1.5836     1.0061 H       
@<TRIPOS>BOND
   1    1    2 ar
   2    1   12 1
   3    1   21 ar
   4    2    3 ar
   5    2   25 1
   6    3    4 ar
   7    4   20 ar
   8    4    5 1
   9    5    6 am
  10    5    7 2
  11    6    8 1
  12    6   24 1
  13    8    9 1
  14    8   10 1
  15    8   11 1
  16    9   26 1
  17    9   27 1
  18    9   28 1
  19   10   29 1
  20   10   30 1
  21   10   31 1
  22   11   32 1
  23   11   33 1
  24   11   34 1
  25   12   13 3
  26   13   14 1
  27   14   15 ar
  28   14   22 ar
  29   15   17 ar
  30   15   35 1
  31   16   18 ar
  32   16   22 ar
  33   16   36 1
  34   17   19 1
  35   17   18 ar
  36   18   37 1
  37   20   21 ar
  38   21   38 1
  39   22   23 1
  40   24   39 1
  41   24   40 1
  42   24   41 1

#	End of record

