#	Name: ASD01142011
#	Creating user name:	WinNT
#	Creation time:	15. 06. 2019 19:01

#	Modifying user name:	WinNT
#	Modification time:	15. 06. 2019 19:01

#	Program:	/corina/corina34_cracker 3.40 0067  02.08.2006

@<TRIPOS>MOLECULE
ASD01142011
  40   43    0    0    0
SMALL
NO_CHARGES


@<TRIPOS>ATOM
   1 C1             0.0950     0.9294     1.0457 C.ar    
   2 C2             0.2875    -0.4451     1.0147 C.ar    
   3 C3             1.5115    -0.9821     0.6461 C.ar    
   4 C4             2.5711    -0.1148     0.2992 C.ar    
   5 C5             2.3535     1.2833     0.3375 C.ar    
   6 C6             1.1044     1.7877     0.7145 C.ar    
   7 C7             1.7061    -2.4496     0.6169 C.ar    
   8 N8             0.6959    -3.2439     0.9474 N.ar    
   9 C9             0.8367    -4.5580     0.9312 C.ar    
  10 C10            2.0578    -5.1035     0.5632 C.ar    
  11 C11            3.0928    -4.2447     0.2236 C.ar    
  12 N12            2.8850    -2.9398     0.2556 N.ar    
  13 N13            3.7706    -0.5856    -0.0626 N.ar    
  14 N14            4.7405     0.1932    -0.3794 N.ar    
  15 C15            4.6394     1.5236    -0.3759 C.ar    
  16 C16            3.4304     2.1354    -0.0145 C.ar    
  17 N17            3.2952     3.5060    -0.0012 N.pl3   
  18 C18            5.7995     2.3511    -0.7522 C.2     
  19 O19            5.6803     3.5575    -0.8483 O.2     
  20 N20            6.9925     1.7707    -0.9897 N.am    
  21 C21            8.3359     2.2301    -1.3734 C.3     
  22 C22            8.9028     0.9945    -0.6607 C.3     
  23 C23            7.5254     0.4001    -0.9730 C.3     
  24 C24           10.0618     0.3213    -1.3987 C.3     
  25 H25           -0.8681     1.3256     1.3315 H       
  26 H26           -0.5258    -1.1039     1.2812 H       
  27 H27            0.9383     2.8545     0.7434 H       
  28 H28            0.0109    -5.1994     1.2015 H       
  29 H29            2.1997    -6.1739     0.5419 H       
  30 H30            4.0558    -4.6377    -0.0673 H       
  31 H31            4.0819     4.0704     0.0577 H       
  32 H32            2.4133     3.9069    -0.0509 H       
  33 H33            8.5050     2.2259    -2.4502 H       
  34 H34            8.6230     3.1714    -0.9048 H       
  35 H35            9.0926     1.1398     0.4027 H       
  36 H36            7.1245    -0.2138    -0.1664 H       
  37 H37            7.4754    -0.0932    -1.9437 H       
  38 H38           10.8821     1.0303    -1.5106 H       
  39 H39           10.4032    -0.5423    -0.8280 H       
  40 H40            9.7256    -0.0037    -2.3833 H       
@<TRIPOS>BOND
   1    1    2 ar
   2    1    6 ar
   3    1   25 1
   4    2    3 ar
   5    2   26 1
   6    3    4 ar
   7    3    7 1
   8    4    5 ar
   9    4   13 ar
  10    5    6 ar
  11    5   16 ar
  12    6   27 1
  13    7    8 ar
  14    7   12 ar
  15    8    9 ar
  16    9   10 ar
  17    9   28 1
  18   10   11 ar
  19   10   29 1
  20   11   12 ar
  21   11   30 1
  22   13   14 ar
  23   14   15 ar
  24   15   16 ar
  25   15   18 1
  26   16   17 1
  27   17   31 1
  28   17   32 1
  29   18   19 2
  30   18   20 am
  31   20   21 1
  32   20   23 1
  33   21   22 1
  34   21   33 1
  35   21   34 1
  36   22   23 1
  37   22   24 1
  38   22   35 1
  39   23   36 1
  40   23   37 1
  41   24   38 1
  42   24   39 1
  43   24   40 1

#	End of record

