#	Name: ASD03092748
#	Creating user name:	WinNT
#	Creation time:	15. 06. 2019 20:33

#	Modifying user name:	WinNT
#	Modification time:	15. 06. 2019 20:33

#	Program:	/corina/corina34_cracker 3.40 0067  02.08.2006

@<TRIPOS>MOLECULE
ASD03092748
 164  172    0    0    0
SMALL
NO_CHARGES


@<TRIPOS>ATOM
   1 C1            -0.0167     1.3781     0.0096 C.ar    
   2 C2             0.0021    -0.0041     0.0020 C.ar    
   3 C3            -1.1855    -0.7115     0.0095 C.ar    
   4 C4            -2.3919    -0.0367     0.0251 C.ar    
   5 C5            -2.4106     1.3455     0.0336 C.ar    
   6 C6            -1.2230     2.0529     0.0305 C.ar    
   7 C7             1.2780     2.1493     0.0014 C.3     
   8 C8             1.7668     2.3100    -1.4395 C.3     
   9 C9             3.0813     3.0930    -1.4478 C.3     
  10 C10            3.5700     3.2536    -2.8887 C.3     
  11 C11            4.8845     4.0366    -2.8971 C.3     
  12 N12            5.3525     4.1905    -4.2768 N.ar    
  13 C13            4.9695     5.2442    -4.9709 C.ar    
  14 C14            5.3908     5.4229    -6.2750 C.ar    
  15 C15            6.2260     4.4778    -6.8507 C.ar    
  16 C16            6.6078     3.3835    -6.0896 C.ar    
  17 C17            6.1500     3.2743    -4.7902 C.ar    
  18 C18            4.9476     6.6296    -7.0615 C.3     
  19 C19            5.9335     7.7512    -6.8588 C.ar    
  20 C20            7.0156     7.8823    -7.7090 C.ar    
  21 C21            7.9200     8.9111    -7.5231 C.ar    
  22 C22            7.7420     9.8090    -6.4873 C.ar    
  23 C23            6.6594     9.6785    -5.6376 C.ar    
  24 C24            5.7527     8.6523    -5.8262 C.ar    
  25 C25           -3.7258     2.0812     0.0500 C.3     
  26 C26           -4.2192     2.2117     1.4924 C.3     
  27 C27           -5.5544     2.9586     1.5090 C.3     
  28 C28           -6.0477     3.0892     2.9514 C.3     
  29 C29           -7.3830     3.8361     2.9680 C.3     
  30 N30           -7.8554     3.9611     4.3491 N.ar    
  31 C31           -7.5013     5.0167     5.0558 C.ar    
  32 C32           -7.9277     5.1687     6.3616 C.ar    
  33 C33           -8.7372     4.1945     6.9257 C.ar    
  34 C34           -9.0889     3.0993     6.1517 C.ar    
  35 C35           -8.6279     3.0177     4.8513 C.ar    
  36 C36           -7.5176     6.3777     7.1623 C.3     
  37 C37           -8.5335     7.4744     6.9722 C.ar    
  38 C38           -9.6190     7.5662     7.8231 C.ar    
  39 C39          -10.5509     8.5722     7.6486 C.ar    
  40 C40          -10.3970     9.4866     6.6235 C.ar    
  41 C41           -9.3111     9.3954     5.7731 C.ar    
  42 C42           -8.3769     8.3920     5.9502 C.ar    
  43 C43            1.3172    -0.7397    -0.0149 C.3     
  44 C44            1.8379    -0.8867     1.4162 C.3     
  45 C45            3.1731    -1.6335     1.3990 C.3     
  46 C46            3.6937    -1.7805     2.8302 C.3     
  47 C47            5.0289    -2.5274     2.8129 C.3     
  48 N48            5.5275    -2.6681     4.1833 N.ar    
  49 C49           -3.6866    -0.8078     0.0322 C.3     
  50 C50           -4.2025    -0.9517    -1.4010 C.3     
  51 C51           -5.5170    -1.7346    -1.3937 C.3     
  52 C52           -6.0329    -1.8784    -2.8269 C.3     
  53 C53           -7.3473    -2.6614    -2.8196 C.3     
  54 N54           -7.8413    -2.7991    -4.1919 N.ar    
  55 C55            5.1868    -3.7317     4.8845 C.ar    
  56 C56            5.6379    -3.8985     6.1801 C.ar    
  57 C57            6.4580    -2.9308     6.7399 C.ar    
  58 C58            6.7951    -1.8268     5.9718 C.ar    
  59 C59            6.3095    -1.7304     4.6815 C.ar    
  60 C60           -7.4716    -3.8446    -4.9055 C.ar    
  61 C61           -7.9175    -4.0080    -6.2034 C.ar    
  62 C62           -8.7633    -3.0563    -6.7521 C.ar    
  63 C63           -9.1305    -1.9710    -5.9712 C.ar    
  64 C64           -8.6483    -1.8771    -4.6794 C.ar    
  65 C65            7.6833    -0.7476     6.5355 C.3     
  66 C66            9.1235    -1.0756     6.2369 C.ar    
  67 C67          -10.0474    -0.9097    -6.5225 C.3     
  68 C68          -11.4784    -1.2802    -6.2289 C.ar    
  69 C69            9.7073    -0.6239     5.0681 C.ar    
  70 C70           11.0284    -0.9248     4.7942 C.ar    
  71 C71           11.7659    -1.6770     5.6894 C.ar    
  72 C72           11.1823    -2.1279     6.8586 C.ar    
  73 C73            9.8625    -1.8234     7.1345 C.ar    
  74 C74          -12.0747    -0.8585    -5.0552 C.ar    
  75 C75          -13.3872    -1.1984    -4.7860 C.ar    
  76 C76          -14.1037    -1.9595    -5.6906 C.ar    
  77 C77          -13.5076    -2.3804    -6.8647 C.ar    
  78 C78          -12.1964    -2.0369    -7.1360 C.ar    
  79 H79           -1.1709    -1.7913     0.0029 H       
  80 H80           -1.2376     3.1328     0.0372 H       
  81 H81            1.1178     3.1331     0.4425 H       
  82 H82            2.0265     1.6088     0.5808 H       
  83 H83            1.9271     1.3262    -1.8806 H       
  84 H84            1.0183     2.8505    -2.0189 H       
  85 H85            2.9210     4.0767    -1.0067 H       
  86 H86            3.8298     2.5525    -0.8684 H       
  87 H87            3.7303     2.2699    -3.3299 H       
  88 H88            2.8215     3.7941    -3.4682 H       
  89 H89            4.7242     5.0204    -2.4559 H       
  90 H90            5.6330     3.4961    -2.3177 H       
  91 H91            4.3188     5.9759    -4.5152 H       
  92 H92            6.5708     4.5910    -7.8679 H       
  93 H93            7.2572     2.6276    -6.5060 H       
  94 H94            6.4431     2.4252    -4.1906 H       
  95 H95            4.8990     6.3754    -8.1203 H       
  96 H96            3.9624     6.9454    -6.7181 H       
  97 H97            7.1546     7.1807    -8.5183 H       
  98 H98            8.7658     9.0131    -8.1869 H       
  99 H99            8.4490    10.6124    -6.3416 H       
 100 H100           6.5206    10.3798    -4.8282 H       
 101 H101           4.9068     8.5503    -5.1624 H       
 102 H102          -3.5921     3.0740    -0.3796 H       
 103 H103          -4.4592     1.5274    -0.5362 H       
 104 H104          -4.3528     1.2189     1.9219 H       
 105 H105          -3.4857     2.7655     2.0785 H       
 106 H106          -5.4207     3.9514     1.0795 H       
 107 H107          -6.2878     2.4049     0.9229 H       
 108 H108          -6.1814     2.0963     3.3809 H       
 109 H109          -5.3143     3.6429     3.5375 H       
 110 H110          -7.2493     4.8289     2.5385 H       
 111 H111          -8.1164     3.2823     2.3819 H       
 112 H112          -6.8706     5.7710     4.6090 H       
 113 H113          -9.0851     4.2865     7.9440 H       
 114 H114          -9.7177     2.3213     6.5588 H       
 115 H115          -8.8977     2.1680     4.2418 H       
 116 H116          -7.4625     6.1125     8.2182 H       
 117 H117          -6.5413     6.7240     6.8232 H       
 118 H118          -9.7392     6.8517     8.6241 H       
 119 H119         -11.3993     8.6434     8.3131 H       
 120 H120         -11.1255    10.2722     6.4867 H       
 121 H121          -9.1910    10.1096     4.9719 H       
 122 H122          -7.5284     8.3207     5.2858 H       
 123 H123           1.1753    -1.7276    -0.4532 H       
 124 H124           2.0394    -0.1792    -0.6086 H       
 125 H125           1.9798     0.1012     1.8545 H       
 126 H126           1.1157    -1.4471     2.0098 H       
 127 H127           3.0312    -2.6214     0.9608 H       
 128 H128           3.8953    -1.0731     0.8054 H       
 129 H129           3.8356    -0.7926     3.2684 H       
 130 H130           2.9715    -2.3410     3.4238 H       
 131 H131           4.8870    -3.5153     2.3747 H       
 132 H132           5.7511    -1.9669     2.2193 H       
 133 H133          -3.5182    -1.7967     0.4587 H       
 134 H134          -4.4240    -0.2743     0.6320 H       
 135 H135          -4.3710     0.0372    -1.8274 H       
 136 H136          -3.4651    -1.4852    -2.0007 H       
 137 H137          -5.3485    -2.7235    -0.9672 H       
 138 H138          -6.2544    -1.2011    -0.7939 H       
 139 H139          -6.2013    -0.8896    -3.2534 H       
 140 H140          -5.2955    -2.4120    -3.4266 H       
 141 H141          -7.1789    -3.6502    -2.3931 H       
 142 H142          -8.0847    -2.1278    -2.2199 H       
 143 H143           4.5476    -4.4809     4.4412 H       
 144 H144           5.3548    -4.7715     6.7495 H       
 145 H145           6.8252    -3.0344     7.7502 H       
 146 H146           6.5678    -0.8738     4.0766 H       
 147 H147          -6.8126    -4.5815    -4.4708 H       
 148 H148          -7.6106    -4.8661    -6.7830 H       
 149 H149          -9.1272    -3.1576    -7.7639 H       
 150 H150          -8.9299    -1.0351    -4.0645 H       
 151 H151           7.4265     0.2089     6.0801 H       
 152 H152           7.5407    -0.6864     7.6143 H       
 153 H153          -9.8169     0.0479    -6.0555 H       
 154 H154          -9.9061    -0.8317    -7.6005 H       
 155 H155           9.1311    -0.0363     4.3688 H       
 156 H156          11.4843    -0.5725     3.8808 H       
 157 H157          12.7978    -1.9127     5.4750 H       
 158 H158          11.7584    -2.7159     7.5578 H       
 159 H159           9.4066    -2.1757     8.0480 H       
 160 H160         -11.5149    -0.2639    -4.3485 H       
 161 H161         -13.8529    -0.8696    -3.8687 H       
 162 H162         -15.1289    -2.2256    -5.4799 H       
 163 H163         -14.0673    -2.9753    -7.5713 H       
 164 H164         -11.7308    -2.3657    -8.0533 H       
@<TRIPOS>BOND
   1    1    2 ar
   2    1    7 1
   3    1    6 ar
   4    2    3 ar
   5    2   43 1
   6    3    4 ar
   7    3   79 1
   8    4    5 ar
   9    4   49 1
  10    5    6 ar
  11    5   25 1
  12    6   80 1
  13    7    8 1
  14    7   81 1
  15    7   82 1
  16    8    9 1
  17    8   83 1
  18    8   84 1
  19    9   10 1
  20    9   85 1
  21    9   86 1
  22   10   11 1
  23   10   87 1
  24   10   88 1
  25   11   12 1
  26   11   89 1
  27   11   90 1
  28   12   13 ar
  29   12   17 ar
  30   13   14 ar
  31   13   91 1
  32   14   15 ar
  33   14   18 1
  34   15   16 ar
  35   15   92 1
  36   16   17 ar
  37   16   93 1
  38   17   94 1
  39   18   19 1
  40   18   95 1
  41   18   96 1
  42   19   20 ar
  43   19   24 ar
  44   20   21 ar
  45   20   97 1
  46   21   22 ar
  47   21   98 1
  48   22   23 ar
  49   22   99 1
  50   23   24 ar
  51   23  100 1
  52   24  101 1
  53   25   26 1
  54   25  102 1
  55   25  103 1
  56   26   27 1
  57   26  104 1
  58   26  105 1
  59   27   28 1
  60   27  106 1
  61   27  107 1
  62   28   29 1
  63   28  108 1
  64   28  109 1
  65   29   30 1
  66   29  110 1
  67   29  111 1
  68   30   31 ar
  69   30   35 ar
  70   31   32 ar
  71   31  112 1
  72   32   33 ar
  73   32   36 1
  74   33   34 ar
  75   33  113 1
  76   34   35 ar
  77   34  114 1
  78   35  115 1
  79   36   37 1
  80   36  116 1
  81   36  117 1
  82   37   38 ar
  83   37   42 ar
  84   38   39 ar
  85   38  118 1
  86   39   40 ar
  87   39  119 1
  88   40   41 ar
  89   40  120 1
  90   41   42 ar
  91   41  121 1
  92   42  122 1
  93   43   44 1
  94   43  123 1
  95   43  124 1
  96   44   45 1
  97   44  125 1
  98   44  126 1
  99   45   46 1
 100   45  127 1
 101   45  128 1
 102   46   47 1
 103   46  129 1
 104   46  130 1
 105   47   48 1
 106   47  131 1
 107   47  132 1
 108   48   55 ar
 109   48   59 ar
 110   49   50 1
 111   49  133 1
 112   49  134 1
 113   50   51 1
 114   50  135 1
 115   50  136 1
 116   51   52 1
 117   51  137 1
 118   51  138 1
 119   52   53 1
 120   52  139 1
 121   52  140 1
 122   53   54 1
 123   53  141 1
 124   53  142 1
 125   54   60 ar
 126   54   64 ar
 127   55   56 ar
 128   55  143 1
 129   56   57 ar
 130   56  144 1
 131   57   58 ar
 132   57  145 1
 133   58   59 ar
 134   58   65 1
 135   59  146 1
 136   60   61 ar
 137   60  147 1
 138   61   62 ar
 139   61  148 1
 140   62   63 ar
 141   62  149 1
 142   63   64 ar
 143   63   67 1
 144   64  150 1
 145   65   66 1
 146   65  151 1
 147   65  152 1
 148   66   69 ar
 149   66   73 ar
 150   67   68 1
 151   67  153 1
 152   67  154 1
 153   68   74 ar
 154   68   78 ar
 155   69   70 ar
 156   69  155 1
 157   70   71 ar
 158   70  156 1
 159   71   72 ar
 160   71  157 1
 161   72   73 ar
 162   72  158 1
 163   73  159 1
 164   74   75 ar
 165   74  160 1
 166   75   76 ar
 167   75  161 1
 168   76   77 ar
 169   76  162 1
 170   77   78 ar
 171   77  163 1
 172   78  164 1

#	End of record

