#	Name: ASD00069126
#	Creating user name:	WinNT
#	Creation time:	15. 06. 2019 18:29

#	Modifying user name:	WinNT
#	Modification time:	15. 06. 2019 18:29

#	Program:	/corina/corina34_cracker 3.40 0067  02.08.2006

@<TRIPOS>MOLECULE
ASD00069126
  52   55    0    0    0
SMALL
NO_CHARGES


@<TRIPOS>ATOM
   1 C1            -0.0635     1.2947    -0.5902 C.2     
   2 N2            -0.0206     0.0043    -0.3440 N.2     
   3 C3             1.2324    -0.4346    -0.5251 C.2     
   4 C4             2.0058     0.6426    -0.9035 C.2     
   5 N5             1.1878     1.7185    -0.9415 N.pl3   
   6 C6            -1.2652     2.1444    -0.5072 C.2     
   7 O7            -1.1888     3.3320    -0.7585 O.2     
   8 N8            -2.4485     1.6053    -0.1530 N.am    
   9 C9             1.2929    -4.2673    -0.2088 C.3     
  10 C10            0.7131    -2.8780     0.0698 C.3     
  11 C11            1.7022    -1.8253    -0.3498 C.2     
  12 C12            2.9712    -2.0992    -0.5669 C.2     
  13 C13            3.5379    -3.4833    -0.4225 C.3     
  14 O14            2.6296    -4.3124     0.3052 O.3     
  15 C15           -3.5643     2.4297     0.0383 C.ar    
  16 C16           -4.8474     1.8845     0.0207 C.ar    
  17 C17           -5.9494     2.7076     0.2110 C.ar    
  18 C18           -5.7711     4.0647     0.4174 C.ar    
  19 C19           -4.4979     4.6037     0.4346 C.ar    
  20 C20           -3.3955     3.7900     0.2516 C.ar    
  21 F21           -7.1948     2.1843     0.1943 F       
  22 N22           -5.0243     0.5108    -0.1889 N.3     
  23 C23           -5.7472     0.2585    -1.4420 C.3     
  24 C24           -5.7944    -1.2474    -1.7108 C.3     
  25 C25           -6.4974    -1.9473    -0.5444 C.3     
  26 C26           -5.7528    -1.6290     0.7551 C.3     
  27 C27           -5.7068    -0.1121     0.9525 C.3     
  28 N28           -6.5358    -1.5007    -2.9535 N.3     
  29 H29            3.0624     0.6295    -1.1265 H       
  30 H30            1.4421     2.6249    -1.1753 H       
  31 H31           -2.5274     0.6463    -0.0306 H       
  32 H32            0.6842    -5.0243     0.2856 H       
  33 H33            1.3079    -4.4493    -1.2834 H       
  34 H34           -0.2124    -2.7515    -0.4919 H       
  35 H35            0.5072    -2.7776     1.1355 H       
  36 H36            3.6317    -1.2969    -0.8611 H       
  37 H37            3.7045    -3.9107    -1.4113 H       
  38 H38            4.4868    -3.4315     0.1113 H       
  39 H39           -6.6288     4.7042     0.5650 H       
  40 H40           -4.3641     5.6632     0.5961 H       
  41 H41           -2.4025     4.2142     0.2706 H       
  42 H42           -6.7631     0.6447    -1.3593 H       
  43 H43           -5.2346     0.7582    -2.2639 H       
  44 H44           -4.7791    -1.6318    -1.8073 H       
  45 H45           -7.5251    -1.5914    -0.4720 H       
  46 H46           -6.4949    -3.0245    -0.7111 H       
  47 H47           -6.2731    -2.0896     1.5949 H       
  48 H48           -4.7368    -2.0194     0.6974 H       
  49 H49           -5.1648     0.1186     1.8696 H       
  50 H50           -6.7229     0.2759     1.0239 H       
  51 H51           -6.5807    -2.4888    -3.1527 H       
  52 H52           -7.4599    -1.0978    -2.9117 H       
@<TRIPOS>BOND
   1    1    2 2
   2    1    5 1
   3    1    6 1
   4    2    3 1
   5    3    4 2
   6    3   11 1
   7    4    5 1
   8    4   29 1
   9    5   30 1
  10    6    7 2
  11    6    8 am
  12    8   15 1
  13    8   31 1
  14    9   10 1
  15    9   14 1
  16    9   32 1
  17    9   33 1
  18   10   11 1
  19   10   34 1
  20   10   35 1
  21   11   12 2
  22   12   13 1
  23   12   36 1
  24   13   14 1
  25   13   37 1
  26   13   38 1
  27   15   16 ar
  28   15   20 ar
  29   16   17 ar
  30   16   22 1
  31   17   18 ar
  32   17   21 1
  33   18   19 ar
  34   18   39 1
  35   19   20 ar
  36   19   40 1
  37   20   41 1
  38   22   23 1
  39   22   27 1
  40   23   24 1
  41   23   42 1
  42   23   43 1
  43   24   25 1
  44   24   28 1
  45   24   44 1
  46   25   26 1
  47   25   45 1
  48   25   46 1
  49   26   27 1
  50   26   47 1
  51   26   48 1
  52   27   49 1
  53   27   50 1
  54   28   51 1
  55   28   52 1

#	End of record

