#	Name: ASD03730325
#	Creating user name:	WinNT
#	Creation time:	15. 06. 2019 20:44

#	Modifying user name:	WinNT
#	Modification time:	15. 06. 2019 20:44

#	Program:	/corina/corina34_cracker 3.40 0067  02.08.2006

@<TRIPOS>MOLECULE
ASD03730325
  47   51    0    0    0
SMALL
NO_CHARGES


@<TRIPOS>ATOM
   1 O1            -0.0175     1.4356     0.0099 O.3     
   2 C2             0.0021    -0.0041     0.0020 C.3     
   3 O3             1.2455    -0.3258    -0.6488 O.3     
   4 C4             2.0694     0.7350    -0.4059 C.ar    
   5 C5             1.2927     1.8182    -0.0005 C.ar    
   6 C6             3.4451     0.8692    -0.4990 C.ar    
   7 C7             4.0447     2.0741    -0.1919 C.ar    
   8 C8             3.2704     3.1521     0.2139 C.ar    
   9 C9             1.8999     3.0246     0.3083 C.ar    
  10 O10            5.4476     3.9700    -0.1811 O.3     
  11 C11            5.4754     2.5394    -0.1970 C.3     
  12 C12            4.2106     4.3063     0.4773 C.3     
  13 N13            7.2560     1.2731     0.4965 N.am    
  14 C14            6.2325     1.9967     0.9873 C.2     
  15 C15            6.2171     2.0196    -1.3985 C.ar    
  16 C16            6.0323     2.1584    -2.7559 C.ar    
  17 C17            6.9019     1.5432    -3.6390 C.ar    
  18 C18            7.9555     0.7895    -3.1547 C.ar    
  19 C19            8.1447     0.6489    -1.7956 C.ar    
  20 C20            7.2743     1.2656    -0.8996 C.ar    
  21 O21            5.9703     2.1772     2.1577 O.2     
  22 C22            8.2368     0.5740     1.3305 C.3     
  23 C23            7.7441    -0.8463     1.6152 C.3     
  24 C24            8.7683    -1.5764     2.4862 C.3     
  25 C25            8.2756    -2.9967     2.7709 C.3     
  26 C26            9.2999    -3.7268     3.6419 C.3     
  27 H27           -0.0091    -0.3928     1.0203 H       
  28 H28           -0.8408    -0.3954    -0.5677 H       
  29 H29            4.0491     0.0303    -0.8118 H       
  30 H30            1.3000     3.8656     0.6235 H       
  31 H31            3.8014     5.2264     0.0601 H       
  32 H32            4.3745     4.4199     1.5489 H       
  33 H33            5.2088     2.7477    -3.1313 H       
  34 H34            6.7581     1.6511    -4.7040 H       
  35 H35            8.6337     0.3087    -3.8441 H       
  36 H36            8.9701     0.0591    -1.4251 H       
  37 H37            9.1921     0.5291     0.8077 H       
  38 H38            8.3621     1.1104     2.2710 H       
  39 H39            6.7887    -0.8015     2.1380 H       
  40 H40            7.6187    -1.3828     0.6746 H       
  41 H41            9.7237    -1.6213     1.9634 H       
  42 H42            8.8936    -1.0400     3.4267 H       
  43 H43            7.3202    -2.9519     3.2937 H       
  44 H44            8.1503    -3.5331     1.8303 H       
  45 H45            8.9489    -4.7386     3.8447 H       
  46 H46           10.2552    -3.7717     3.1191 H       
  47 H47            9.4252    -3.1904     4.5824 H       
@<TRIPOS>BOND
   1    1    2 1
   2    1    5 1
   3    2    3 1
   4    2   27 1
   5    2   28 1
   6    3    4 1
   7    4    5 ar
   8    4    6 ar
   9    5    9 ar
  10    6    7 ar
  11    6   29 1
  12    7    8 ar
  13    7   11 1
  14    8    9 ar
  15    8   12 1
  16    9   30 1
  17   10   11 1
  18   10   12 1
  19   11   14 1
  20   11   15 1
  21   12   31 1
  22   12   32 1
  23   13   14 am
  24   13   20 1
  25   13   22 1
  26   14   21 2
  27   15   16 ar
  28   15   20 ar
  29   16   17 ar
  30   16   33 1
  31   17   18 ar
  32   17   34 1
  33   18   19 ar
  34   18   35 1
  35   19   20 ar
  36   19   36 1
  37   22   23 1
  38   22   37 1
  39   22   38 1
  40   23   24 1
  41   23   39 1
  42   23   40 1
  43   24   25 1
  44   24   41 1
  45   24   42 1
  46   25   26 1
  47   25   43 1
  48   25   44 1
  49   26   45 1
  50   26   46 1
  51   26   47 1

#	End of record

