#	Name: ASD01810914
#	Creating user name:	WinNT
#	Creation time:	15. 06. 2019 19:25

#	Modifying user name:	WinNT
#	Modification time:	15. 06. 2019 19:25

#	Program:	/corina/corina34_cracker 3.40 0067  02.08.2006

@<TRIPOS>MOLECULE
ASD01810914
  59   62    0    0    0
SMALL
NO_CHARGES


@<TRIPOS>ATOM
   1 C1            -7.3669     2.2275    -3.9942 C.1     
   2 C2            -6.3850     3.0173    -3.3141 C.ar    
   3 C3            -5.2166     2.4226    -2.8336 C.ar    
   4 C4            -4.2748     3.1894    -2.1793 C.ar    
   5 C5            -4.4861     4.5447    -1.9984 C.ar    
   6 C6            -5.6418     5.1405    -2.4716 C.ar    
   7 C7            -6.5888     4.3868    -3.1335 C.ar    
   8 N8            -8.1459     1.6009    -4.5336 N.1     
   9 N9            -2.4245     7.7905    -0.2278 N.am    
  10 C10           -1.8728     7.2984    -1.4975 C.3     
  11 C11           -2.9475     6.4773    -2.2168 C.3     
  12 C12           -3.4530     5.3758    -1.2822 C.3     
  13 C13           -4.0806     6.0084    -0.0381 C.3     
  14 C14           -3.0187     6.8243     0.7060 C.3     
  15 C15           -2.3814     9.1027     0.0770 C.2     
  16 C16           -3.0226     9.5955     1.3142 C.ar    
  17 C17           -3.9801    10.6110     1.2496 C.ar    
  18 C18           -4.5795    11.0727     2.4034 C.ar    
  19 C19           -4.2373    10.5345     3.6304 C.ar    
  20 C20           -3.2815     9.5181     3.7083 C.ar    
  21 C21           -2.6775     9.0442     2.5466 C.ar    
  22 O22           -1.8152     9.8809    -0.6656 O.2     
  23 C23           -4.3587    11.2036    -0.0832 C.3     
  24 N24           -2.9037     8.5401     7.1090 N.2     
  25 N25           -3.4709     9.2234     6.1797 N.2     
  26 C26           -2.9158     8.9433     5.0215 C.2     
  27 N27           -1.9353     8.0191     5.2613 N.pl3   
  28 C28           -1.9616     7.7905     6.6027 C.2     
  29 C29           -1.0678     6.8459     7.3641 C.3     
  30 C30           -0.3646     7.6057     8.4907 C.3     
  31 O31            0.4830     6.7100     9.2127 O.3     
  32 C32            1.1903     7.3226    10.2927 C.3     
  33 Cl33          -4.9962    11.1229     5.0766 Cl      
  34 H34           -5.0507     1.3646    -2.9736 H       
  35 H35           -3.3707     2.7306    -1.8072 H       
  36 H36           -5.8006     6.1989    -2.3266 H       
  37 H37           -7.4883     4.8540    -3.5066 H       
  38 H38           -1.5803     8.1434    -2.1208 H       
  39 H39           -1.0044     6.6701    -1.2994 H       
  40 H40           -3.7769     7.1276    -2.4947 H       
  41 H41           -2.5217     6.0267    -3.1133 H       
  42 H42           -2.6185     4.7407    -0.9848 H       
  43 H43           -4.8994     6.6632    -0.3365 H       
  44 H44           -4.4613     5.2241     0.6162 H       
  45 H45           -2.2438     6.1572     1.0838 H       
  46 H46           -3.4824     7.3564     1.5366 H       
  47 H47           -5.3187    11.8581     2.3481 H       
  48 H48           -1.9412     8.2560     2.6010 H       
  49 H49           -5.1283    10.5881    -0.5491 H       
  50 H50           -4.7410    12.2138     0.0638 H       
  51 H51           -3.4808    11.2377    -0.7283 H       
  52 H52           -1.3439     7.6109     4.6097 H       
  53 H53           -1.6675     6.0406     7.7882 H       
  54 H54           -0.3225     6.4267     6.6882 H       
  55 H55            0.2351     8.4111     8.0667 H       
  56 H56           -1.1099     8.0249     9.1666 H       
  57 H57            1.8109     6.5771    10.7899 H       
  58 H58            1.8223     8.1221     9.9060 H       
  59 H59            0.4773     7.7359    11.0060 H       
@<TRIPOS>BOND
   1    1    2 1
   2    1    8 3
   3    2    3 ar
   4    2    7 ar
   5    3    4 ar
   6    3   34 1
   7    4    5 ar
   8    4   35 1
   9    5    6 ar
  10    5   12 1
  11    6    7 ar
  12    6   36 1
  13    7   37 1
  14    9   10 1
  15    9   14 1
  16    9   15 am
  17   10   11 1
  18   10   38 1
  19   10   39 1
  20   11   12 1
  21   11   40 1
  22   11   41 1
  23   12   13 1
  24   12   42 1
  25   13   14 1
  26   13   43 1
  27   13   44 1
  28   14   45 1
  29   14   46 1
  30   15   16 1
  31   15   22 2
  32   16   17 ar
  33   16   21 ar
  34   17   18 ar
  35   17   23 1
  36   18   19 ar
  37   18   47 1
  38   19   20 ar
  39   19   33 1
  40   20   21 ar
  41   20   26 1
  42   21   48 1
  43   23   49 1
  44   23   50 1
  45   23   51 1
  46   24   25 1
  47   24   28 2
  48   25   26 2
  49   26   27 1
  50   27   28 1
  51   27   52 1
  52   28   29 1
  53   29   30 1
  54   29   53 1
  55   29   54 1
  56   30   31 1
  57   30   55 1
  58   30   56 1
  59   31   32 1
  60   32   57 1
  61   32   58 1
  62   32   59 1

#	End of record

