#	Name: ASD01410617
#	Creating user name:	WinNT
#	Creation time:	15. 06. 2019 19:18

#	Modifying user name:	WinNT
#	Modification time:	15. 06. 2019 19:18

#	Program:	/corina/corina34_cracker 3.40 0067  02.08.2006

@<TRIPOS>MOLECULE
ASD01410617
  71   74    0    0    0
SMALL
NO_CHARGES


@<TRIPOS>ATOM
   1 C1            -0.0981    -1.3472     2.2523 C.ar    
   2 C2             0.6156    -1.8619     3.3256 C.ar    
   3 C3             1.9862    -1.9968     3.2232 C.ar    
   4 N4             2.6200    -1.6432     2.1216 N.ar    
   5 C5             1.9748    -1.1488     1.0778 C.ar    
   6 C6             0.5959    -0.9855     1.1106 C.ar    
   7 O7             2.6666    -0.7981    -0.0353 O.3     
   8 C8             4.0216    -0.9066    -0.0054 C.ar    
   9 C9             4.6194    -2.1548    -0.1322 C.ar    
  10 C10            5.9940    -2.2762    -0.1032 C.ar    
  11 C11            6.7899    -1.1501     0.0537 C.ar    
  12 C12            6.1925     0.1131     0.1824 C.ar    
  13 C13            4.8006     0.2261     0.1456 C.ar    
  14 N14            8.1781    -1.2735     0.0839 N.am    
  15 C15            8.8791    -1.2818    -1.0672 C.2     
  16 C16            8.8751    -1.3942     1.3669 C.3     
  17 O17           10.0783    -1.4616    -1.0456 O.2     
  18 C18            8.1728    -1.0676    -2.3811 C.3     
  19 C19            9.0010    -1.6820    -3.5113 C.3     
  20 C20            8.2839    -1.4646    -4.8453 C.3     
  21 C21            8.1144     0.0354    -5.0946 C.3     
  22 C22            7.2862     0.6499    -3.9643 C.3     
  23 C23            8.0033     0.4324    -2.6303 C.3     
  24 C24            7.3973     0.2529    -6.4285 C.3     
  25 C25            9.0879    -2.8735     1.6945 C.3     
  26 C26            9.7049    -3.0011     3.0634 C.ar    
  27 C27            8.8973    -3.0048     4.1912 C.ar    
  28 C28            9.4684    -3.1230     5.4502 C.ar    
  29 C29           10.8390    -3.2366     5.5776 C.ar    
  30 C30           11.6420    -3.2322     4.4518 C.ar    
  31 C31           11.0750    -3.1203     3.1959 C.ar    
  32 O32            7.5490    -2.8925     4.0632 O.3     
  33 C33            6.7798    -2.9037     5.2675 C.3     
  34 C34           -0.1349    -0.4220    -0.0808 C.3     
  35 F35           -1.5040    -0.3575     0.1995 F       
  36 F36            0.3454     0.8625    -0.3577 F       
  37 F37            0.0755    -1.2477    -1.1903 F       
  38 C38            7.0292     1.3149     0.3499 C.2     
  39 O39            8.2398     1.2133     0.3770 O.2     
  40 O40            6.4518     2.5262     0.4731 O.3     
  41 H41           -1.1710    -1.2356     2.3051 H       
  42 H42            0.1046    -2.1535     4.2313 H       
  43 H43            2.5462    -2.3964     4.0557 H       
  44 H44            4.0050    -3.0347    -0.2539 H       
  45 H45            6.4512    -3.2496    -0.2024 H       
  46 H46            4.3335     1.1949     0.2439 H       
  47 H47            9.8411    -0.8933     1.3041 H       
  48 H48            8.2759    -0.9310     2.1508 H       
  49 H49            7.1928    -1.5436    -2.3486 H       
  50 H50            9.9810    -1.2060    -3.5438 H       
  51 H51            9.1218    -2.7506    -3.3338 H       
  52 H52            8.8739    -1.9023    -5.6505 H       
  53 H53            7.3039    -1.9405    -4.8128 H       
  54 H54            9.0944     0.5114    -5.1271 H       
  55 H55            7.1654     1.7185    -4.1419 H       
  56 H56            6.3062     0.1739    -3.9318 H       
  57 H57            7.4133     0.8701    -1.8251 H       
  58 H58            8.9833     0.9084    -2.6628 H       
  59 H59            6.4173    -0.2231    -6.3960 H       
  60 H60            7.2765     1.3215    -6.6061 H       
  61 H61            7.9873    -0.1848    -7.2338 H       
  62 H62            8.1286    -3.3908     1.6786 H       
  63 H63            9.7526    -3.3177     0.9535 H       
  64 H64            8.8417    -3.1258     6.3298 H       
  65 H65           11.2840    -3.3286     6.5574 H       
  66 H66           12.7136    -3.3204     4.5536 H       
  67 H67           11.7043    -3.1171     2.3182 H       
  68 H68            7.0843    -2.0705     5.9009 H       
  69 H69            5.7218    -2.8071     5.0238 H       
  70 H70            6.9466    -3.8421     5.7964 H       
  71 H71            7.0416     3.2848     0.5809 H       
@<TRIPOS>BOND
   1    1    2 ar
   2    1    6 ar
   3    1   41 1
   4    2    3 ar
   5    2   42 1
   6    3    4 ar
   7    3   43 1
   8    4    5 ar
   9    5    6 ar
  10    5    7 1
  11    6   34 1
  12    7    8 1
  13    8    9 ar
  14    8   13 ar
  15    9   10 ar
  16    9   44 1
  17   10   11 ar
  18   10   45 1
  19   11   12 ar
  20   11   14 1
  21   12   13 ar
  22   12   38 1
  23   13   46 1
  24   14   15 am
  25   14   16 1
  26   15   17 2
  27   15   18 1
  28   16   25 1
  29   16   47 1
  30   16   48 1
  31   18   19 1
  32   18   23 1
  33   18   49 1
  34   19   20 1
  35   19   50 1
  36   19   51 1
  37   20   21 1
  38   20   52 1
  39   20   53 1
  40   21   22 1
  41   21   24 1
  42   21   54 1
  43   22   23 1
  44   22   55 1
  45   22   56 1
  46   23   57 1
  47   23   58 1
  48   24   59 1
  49   24   60 1
  50   24   61 1
  51   25   26 1
  52   25   62 1
  53   25   63 1
  54   26   27 ar
  55   26   31 ar
  56   27   28 ar
  57   27   32 1
  58   28   29 ar
  59   28   64 1
  60   29   30 ar
  61   29   65 1
  62   30   31 ar
  63   30   66 1
  64   31   67 1
  65   32   33 1
  66   33   68 1
  67   33   69 1
  68   33   70 1
  69   34   35 1
  70   34   36 1
  71   34   37 1
  72   38   39 2
  73   38   40 1
  74   40   71 1

#	End of record

