#	Name: ASD09610016
#	Creating user name:	WinNT
#	Creation time:	15. 06. 2019 21:22

#	Modifying user name:	WinNT
#	Modification time:	15. 06. 2019 21:22

#	Program:	/corina/corina34_cracker 3.40 0067  02.08.2006

@<TRIPOS>MOLECULE
ASD09610016
  49   50    0    0    0
SMALL
NO_CHARGES


@<TRIPOS>ATOM
   1 C1            -0.7144     0.1160     0.9059 C.2     
   2 C2             0.0544    -0.0251    -0.3527 C.2     
   3 O3            -0.2909    -0.3728     1.9346 O.2     
   4 N4            -1.8808     0.7913     0.9110 N.am    
   5 C5             1.3871    -0.6677    -0.3375 C.ar    
   6 C6             1.5096    -2.0379    -0.0380 C.ar    
   7 C7             2.7724    -2.6297    -0.0279 C.ar    
   8 C8             3.8910    -1.8726    -0.3105 C.ar    
   9 C9             3.7697    -0.5248    -0.6051 C.ar    
  10 C10            2.5280     0.0778    -0.6252 C.ar    
  11 C11            0.3109    -2.8416     0.2636 C.2     
  12 N12           -0.8662    -2.3167     0.1475 N.2     
  13 O13           -2.0134    -3.0637     0.5092 O.3     
  14 C14           -3.2381    -2.3346     0.4060 C.3     
  15 C15           -3.7522    -2.4022    -1.0334 C.3     
  16 C16           -4.2613    -2.9376     1.3337 C.ar    
  17 C17           -5.1791    -2.1247     1.9728 C.ar    
  18 C18           -6.1175    -2.6776     2.8236 C.ar    
  19 C19           -6.1387    -4.0437     3.0353 C.ar    
  20 C20           -5.2218    -4.8565     2.3957 C.ar    
  21 C21           -4.2859    -4.3038     1.5413 C.ar    
  22 C22           -7.1172    -1.7914     3.5209 C.3     
  23 F23           -8.2599    -1.6607     2.7244 F       
  24 F24           -7.4679    -2.3610     4.7497 F       
  25 F25           -6.5519    -0.5300     3.7361 F       
  26 C26           -2.6409     0.9309     2.1556 C.3     
  27 N27           -0.4428     0.4163    -1.4722 N.2     
  28 O28            0.3328     0.3754    -2.6562 O.3     
  29 C29           -0.3740     0.7856    -3.8285 C.3     
  30 H30           -2.2169     1.1850     0.0907 H       
  31 H31            2.8749    -3.6802     0.2013 H       
  32 H32            4.8675    -2.3340    -0.3015 H       
  33 H33            4.6523     0.0578    -0.8243 H       
  34 H34            2.4415     1.1285    -0.8599 H       
  35 H35            0.4153    -3.8685     0.5815 H       
  36 H36           -3.0660    -1.2943     0.6819 H       
  37 H37           -4.0075    -3.4328    -1.2800 H       
  38 H38           -4.6379    -1.7748    -1.1328 H       
  39 H39           -2.9774    -2.0473    -1.7130 H       
  40 H40           -5.1625    -1.0575     1.8074 H       
  41 H41           -6.8715    -4.4758     3.7007 H       
  42 H42           -5.2382    -5.9236     2.5613 H       
  43 H43           -3.5719    -4.9393     1.0386 H       
  44 H44           -3.5485     1.5036     1.9647 H       
  45 H45           -2.9070    -0.0570     2.5316 H       
  46 H46           -2.0328     1.4500     2.8965 H       
  47 H47           -0.6411     1.8389    -3.7418 H       
  48 H48            0.2597     0.6424    -4.7036 H       
  49 H49           -1.2799     0.1886    -3.9342 H       
@<TRIPOS>BOND
   1    1    2 1
   2    1    3 2
   3    1    4 am
   4    2    5 1
   5    2   27 2
   6    4   26 1
   7    4   30 1
   8    5    6 ar
   9    5   10 ar
  10    6    7 ar
  11    6   11 1
  12    7    8 ar
  13    7   31 1
  14    8    9 ar
  15    8   32 1
  16    9   10 ar
  17    9   33 1
  18   10   34 1
  19   11   12 2
  20   11   35 1
  21   12   13 1
  22   13   14 1
  23   14   15 1
  24   14   16 1
  25   14   36 1
  26   15   37 1
  27   15   38 1
  28   15   39 1
  29   16   17 ar
  30   16   21 ar
  31   17   18 ar
  32   17   40 1
  33   18   19 ar
  34   18   22 1
  35   19   20 ar
  36   19   41 1
  37   20   21 ar
  38   20   42 1
  39   21   43 1
  40   22   23 1
  41   22   24 1
  42   22   25 1
  43   26   44 1
  44   26   45 1
  45   26   46 1
  46   27   28 1
  47   28   29 1
  48   29   47 1
  49   29   48 1
  50   29   49 1

#	End of record

