#	Name: ASD01910459
#	Creating user name:	WinNT
#	Creation time:	15. 06. 2019 19:55

#	Modifying user name:	WinNT
#	Modification time:	15. 06. 2019 19:55

#	Program:	/corina/corina34_cracker 3.40 0067  02.08.2006

@<TRIPOS>MOLECULE
ASD01910459
  44   47    0    0    0
SMALL
NO_CHARGES


@<TRIPOS>ATOM
   1 C1             2.3985     0.3802     0.8225 C.ar    
   2 C2             1.9831    -1.0428     0.7565 C.2     
   3 N3             0.7332    -1.5043     0.5256 N.2     
   4 C4             0.8295    -2.8102     0.5543 C.2     
   5 O5             2.1104    -3.1052     0.7972 O.3     
   6 N6             2.7583    -2.0856     0.9052 N.2     
   7 C7            -0.2930    -3.7951     0.3520 C.3     
   8 C8             0.0192    -4.6849    -0.8535 C.3     
   9 C9            -1.1353    -5.6638    -1.0797 C.3     
  10 C10           -1.2903    -6.5582     0.1542 C.3     
  11 N11           -1.4462    -5.7051     1.3402 N.am    
  12 C12           -0.4385    -4.6685     1.6021 C.3     
  13 C13           -2.4937    -5.8702     2.1720 C.2     
  14 C14           -2.5729    -5.0926     3.4192 C.2     
  15 O15           -3.3738    -6.6619     1.8920 O.2     
  16 C16            3.7300     0.7086     1.0699 C.ar    
  17 C17            4.1120     2.0329     1.1300 C.ar    
  18 C18            3.1738     3.0357     0.9452 C.ar    
  19 C19            1.8488     2.7136     0.6990 C.ar    
  20 C20            1.4593     1.3918     0.6316 C.ar    
  21 F21            3.5520     4.3313     1.0057 F       
  22 C22           -1.4501    -4.8924     4.3053 C.2     
  23 C23           -1.7515    -4.1580     5.3696 C.2     
  24 S24           -3.4389    -3.6771     5.3295 S.3     
  25 C25           -3.7093    -4.4840     3.8526 C.2     
  26 C26           -5.0305    -4.5236     3.1288 C.3     
  27 H27           -1.2231    -3.2553     0.1745 H       
  28 H28            0.1475    -4.0636    -1.7398 H       
  29 H29            0.9366    -5.2426    -0.6652 H       
  30 H30           -2.0578    -5.1067    -1.2435 H       
  31 H31           -0.9228    -6.2813    -1.9524 H       
  32 H32           -2.1716    -7.1893     0.0396 H       
  33 H33           -0.4037    -7.1822     0.2670 H       
  34 H34            0.5176    -5.1383     1.8329 H       
  35 H35           -0.7578    -4.0526     2.4429 H       
  36 H36            4.4618    -0.0724     1.2148 H       
  37 H37            5.1437     2.2883     1.3217 H       
  38 H38            1.1207     3.4983     0.5559 H       
  39 H39            0.4264     1.1416     0.4396 H       
  40 H40           -0.4666    -5.2988     4.1215 H       
  41 H41           -1.0551    -3.8938     6.1517 H       
  42 H42           -5.7724    -3.9613     3.6958 H       
  43 H43           -4.9164    -4.0801     2.1397 H       
  44 H44           -5.3583    -5.5582     3.0274 H       
@<TRIPOS>BOND
   1    1    2 1
   2    1   16 ar
   3    1   20 ar
   4    2    3 1
   5    2    6 2
   6    3    4 2
   7    4    5 1
   8    4    7 1
   9    5    6 1
  10    7    8 1
  11    7   12 1
  12    7   27 1
  13    8    9 1
  14    8   28 1
  15    8   29 1
  16    9   10 1
  17    9   30 1
  18    9   31 1
  19   10   11 1
  20   10   32 1
  21   10   33 1
  22   11   12 1
  23   11   13 am
  24   12   34 1
  25   12   35 1
  26   13   14 1
  27   13   15 2
  28   14   22 1
  29   14   25 2
  30   16   17 ar
  31   16   36 1
  32   17   18 ar
  33   17   37 1
  34   18   19 ar
  35   18   21 1
  36   19   20 ar
  37   19   38 1
  38   20   39 1
  39   22   23 2
  40   22   40 1
  41   23   24 1
  42   23   41 1
  43   24   25 1
  44   25   26 1
  45   26   42 1
  46   26   43 1
  47   26   44 1

#	End of record

