#	Name: ASD01700011
#	Creating user name:	WinNT
#	Creation time:	15. 06. 2019 19:22

#	Modifying user name:	WinNT
#	Modification time:	15. 06. 2019 19:22

#	Program:	/corina/corina34_cracker 3.40 0067  02.08.2006

@<TRIPOS>MOLECULE
ASD01700011
  60   63    0    0    0
SMALL
NO_CHARGES


@<TRIPOS>ATOM
   1 C1            -0.0247     1.6584    -0.0739 C.ar    
   2 N2            -9.0895     0.1199     1.0685 N.3     
   3 S3            -0.0167    -0.1034    -0.0974 S.3     
   4 C4            -0.1940     2.3405     1.1296 C.ar    
   5 N5           -11.3267     1.7234     0.6334 N.am    
   6 O6           -13.4991     1.6820     0.1854 O.2     
   7 C7            -0.1994     3.7254     1.1418 C.ar    
   8 N8            -1.1306    -2.9094    -0.1959 N.pl3   
   9 O9            -1.4871    -4.0727    -0.2499 O.2     
  10 C10           -0.0377     4.4284    -0.0381 C.ar    
  11 O11            0.0476    -2.6270    -0.3215 O.2     
  12 C12            0.1299     3.7526    -1.2328 C.ar    
  13 C13            0.1433     2.3709    -1.2531 C.ar    
  14 O14           -0.3539     1.6480     2.2890 O.3     
  15 C15           -6.2685    -2.8219     0.4619 C.ar    
  16 C16           -0.5222     2.4134     3.4840 C.3     
  17 C17           -1.7215    -0.5100     0.0839 C.ar    
  18 C18           -2.1292    -1.8385     0.0223 C.ar    
  19 C19           -3.4621    -2.1584     0.1639 C.ar    
  20 C20           -4.4024    -1.1493     0.3690 C.ar    
  21 C21           -3.9917     0.1823     0.4305 C.ar    
  22 C22           -2.6576     0.4978     0.2942 C.ar    
  23 C23           -5.8371    -1.4914     0.5211 C.ar    
  24 C24           -6.7927    -0.4954     0.7265 C.ar    
  25 C25           -8.1253    -0.8606     0.8633 C.ar    
  26 C26          -10.4278    -0.4742     1.1864 C.3     
  27 C27          -11.4312     0.6113     1.5902 C.3     
  28 N28           -8.4879    -2.1334     0.8007 N.ar    
  29 C29           -9.9941     2.2822     0.3588 C.3     
  30 C30           -9.0473     1.1309     0.0035 C.3     
  31 C31          -12.4228     2.2171     0.0240 C.2     
  32 C32          -12.3109     3.4339    -0.8579 C.3     
  33 C33           -0.6860     1.4684     4.6761 C.3     
  34 C34           -7.6102    -3.1004     0.6076 C.ar    
  35 H35           -0.3305     4.2566     2.0730 H       
  36 H36           -0.0426     5.5083    -0.0264 H       
  37 H37            0.2556     4.3061    -2.1517 H       
  38 H38            0.2797     1.8457    -2.1869 H       
  39 H39           -5.5590    -3.6199     0.2998 H       
  40 H40            0.3534     3.0440     3.6379 H       
  41 H41           -1.4095     3.0398     3.3922 H       
  42 H42           -3.7783    -3.1900     0.1157 H       
  43 H43           -4.7186     0.9652     0.5893 H       
  44 H44           -2.3387     1.5283     0.3465 H       
  45 H45           -6.5004     0.5429     0.7787 H       
  46 H46          -10.7213    -0.9026     0.2280 H       
  47 H47          -10.4129    -1.2563     1.9455 H       
  48 H48          -11.2001     0.9686     2.5936 H       
  49 H49          -12.4415     0.2026     1.5676 H       
  50 H50          -10.0543     2.9783    -0.4778 H       
  51 H51           -9.6248     2.8001     1.2439 H       
  52 H52           -8.0312     1.5129    -0.0953 H       
  53 H53           -9.3600     0.6802    -0.9384 H       
  54 H54          -11.2638     3.7236    -0.9463 H       
  55 H55          -12.7090     3.2041    -1.8463 H       
  56 H56          -12.8790     4.2541    -0.4191 H       
  57 H57           -1.5617     0.8378     4.5222 H       
  58 H58            0.2013     0.8420     4.7678 H       
  59 H59           -0.8144     2.0523     5.5875 H       
  60 H60           -7.9487    -4.1250     0.5628 H       
@<TRIPOS>BOND
   1    1    3 1
   2    1    4 ar
   3    1   13 ar
   4    2   25 1
   5    2   26 1
   6    2   30 1
   7    3   17 1
   8    4    7 ar
   9    4   14 1
  10    5   27 1
  11    5   29 1
  12    5   31 am
  13    6   31 2
  14    7   10 ar
  15    7   35 1
  16    8    9 2
  17    8   11 2
  18    8   18 1
  19   10   12 ar
  20   10   36 1
  21   12   13 ar
  22   12   37 1
  23   13   38 1
  24   14   16 1
  25   15   23 ar
  26   15   34 ar
  27   15   39 1
  28   16   33 1
  29   16   40 1
  30   16   41 1
  31   17   18 ar
  32   17   22 ar
  33   18   19 ar
  34   19   20 ar
  35   19   42 1
  36   20   21 ar
  37   20   23 1
  38   21   22 ar
  39   21   43 1
  40   22   44 1
  41   23   24 ar
  42   24   25 ar
  43   24   45 1
  44   25   28 ar
  45   26   27 1
  46   26   46 1
  47   26   47 1
  48   27   48 1
  49   27   49 1
  50   28   34 ar
  51   29   30 1
  52   29   50 1
  53   29   51 1
  54   30   52 1
  55   30   53 1
  56   31   32 1
  57   32   54 1
  58   32   55 1
  59   32   56 1
  60   33   57 1
  61   33   58 1
  62   33   59 1
  63   34   60 1

#	End of record

