#	Name: ASD02500738
#	Creating user name:	WinNT
#	Creation time:	15. 06. 2019 20:23

#	Modifying user name:	WinNT
#	Modification time:	15. 06. 2019 20:23

#	Program:	/corina/corina34_cracker 3.40 0067  02.08.2006

@<TRIPOS>MOLECULE
ASD02500738
  67   71    0    0    0
SMALL
NO_CHARGES


@<TRIPOS>ATOM
   1 N1            -0.2373     1.7608     0.5059 N.am    
   2 C2            -0.1318     0.4199     0.4206 C.2     
   3 O3             0.9638    -0.0990     0.3249 O.2     
   4 C4            -1.3455    -0.4184     0.4433 C.ar    
   5 C5            -1.4224    -1.5613    -0.3579 C.ar    
   6 C6            -2.5557    -2.3415    -0.3342 C.ar    
   7 C7            -3.6252    -1.9933     0.4863 C.ar    
   8 C8            -3.5518    -0.8554     1.2851 C.ar    
   9 C9            -2.4188    -0.0746     1.2704 C.ar    
  10 N10           -4.7691    -2.7834     0.5077 N.am    
  11 S11           -5.4514    -3.2135     1.9540 S.o2    
  12 C12           -4.2541    -4.1599     2.8346 C.ar    
  13 O13           -5.6297    -2.0095     2.6874 O.2     
  14 O14           -6.5174    -4.1014     1.6466 O.2     
  15 C15           -3.8305    -5.4032     2.3342 C.ar    
  16 C16           -2.8665    -6.1459     3.0604 C.ar    
  17 C17           -2.3533    -5.6297     4.2608 C.ar    
  18 C18           -2.7875    -4.4212     4.7138 C.ar    
  19 C19           -3.7317    -3.6872     3.9992 C.ar    
  20 N20           -4.3223    -5.8905     1.1905 N.ar    
  21 C21           -3.9310    -7.0495     0.7196 C.ar    
  22 C22           -2.9868    -7.8298     1.3837 C.ar    
  23 C23           -2.4436    -7.3909     2.5574 C.ar    
  24 C24            0.9608     2.6067     0.6173 C.3     
  25 C25            0.8819     3.7051    -0.4484 C.3     
  26 N26           -0.3960     4.4179    -0.3187 N.3     
  27 C27           -1.5333     3.5229    -0.5705 C.3     
  28 C28           -1.5531     2.4175     0.4839 C.3     
  29 C29           -0.4371     5.5297    -1.1637 C.ar    
  30 C30           -1.5629     6.3388    -1.1907 C.ar    
  31 C31            0.6526     5.8281    -1.9731 C.ar    
  32 C32            0.6170     6.9272    -2.8111 C.ar    
  33 C33           -0.5005     7.7354    -2.8498 C.ar    
  34 C34           -1.5988     7.4478    -2.0363 C.ar    
  35 C35           -2.7968     8.3115    -2.0756 C.2     
  36 O36           -2.8311     9.3787    -2.8970 O.3     
  37 O37           -3.7508     8.0595    -1.3672 O.2     
  38 C38           -4.0402    10.1825    -2.8833 C.3     
  39 C39           -3.8940    11.3405    -3.8726 C.3     
  40 H40           -0.5934    -1.8316    -0.9952 H       
  41 H41           -2.6158    -3.2246    -0.9530 H       
  42 H42           -4.3833    -0.5877     1.9203 H       
  43 H43           -2.3625     0.8080     1.8903 H       
  44 H44           -5.1675    -3.0827    -0.3245 H       
  45 H45           -1.6185    -6.1880     4.8220 H       
  46 H46           -2.3922    -4.0249     5.6374 H       
  47 H47           -4.0599    -2.7310     4.3792 H       
  48 H48           -4.3520    -7.4094    -0.2075 H       
  49 H49           -2.6847    -8.7809     0.9707 H       
  50 H50           -1.7103    -7.9826     3.0852 H       
  51 H51            0.9984     3.0597     1.6079 H       
  52 H52            1.8527     2.0017     0.4542 H       
  53 H53            1.7051     4.4060    -0.3099 H       
  54 H54            0.9490     3.2560    -1.4393 H       
  55 H55           -2.4618     4.0917    -0.5206 H       
  56 H56           -1.4326     3.0763    -1.5597 H       
  57 H57           -2.3240     1.6881     0.2353 H       
  58 H58           -1.7564     2.8496     1.4637 H       
  59 H59           -2.4092     6.1111    -0.5595 H       
  60 H60            1.5304     5.1995    -1.9471 H       
  61 H61            1.4671     7.1541    -3.4375 H       
  62 H62           -0.5242     8.5932    -3.5055 H       
  63 H63           -4.8907     9.5644    -3.1705 H       
  64 H64           -4.2014    10.5792    -1.8809 H       
  65 H65           -4.8017    11.9439    -3.8623 H       
  66 H66           -3.0434    11.9586    -3.5854 H       
  67 H67           -3.7328    10.9438    -4.8750 H       
@<TRIPOS>BOND
   1    1    2 am
   2    1   24 1
   3    1   28 1
   4    2    3 2
   5    2    4 1
   6    4    5 ar
   7    4    9 ar
   8    5    6 ar
   9    5   40 1
  10    6    7 ar
  11    6   41 1
  12    7    8 ar
  13    7   10 1
  14    8    9 ar
  15    8   42 1
  16    9   43 1
  17   10   11 am
  18   10   44 1
  19   11   12 1
  20   11   13 2
  21   11   14 2
  22   12   15 ar
  23   12   19 ar
  24   15   16 ar
  25   15   20 ar
  26   16   17 ar
  27   16   23 ar
  28   17   18 ar
  29   17   45 1
  30   18   19 ar
  31   18   46 1
  32   19   47 1
  33   20   21 ar
  34   21   22 ar
  35   21   48 1
  36   22   23 ar
  37   22   49 1
  38   23   50 1
  39   24   25 1
  40   24   51 1
  41   24   52 1
  42   25   26 1
  43   25   53 1
  44   25   54 1
  45   26   27 1
  46   26   29 1
  47   27   28 1
  48   27   55 1
  49   27   56 1
  50   28   57 1
  51   28   58 1
  52   29   30 ar
  53   29   31 ar
  54   30   34 ar
  55   30   59 1
  56   31   32 ar
  57   31   60 1
  58   32   33 ar
  59   32   61 1
  60   33   34 ar
  61   33   62 1
  62   34   35 1
  63   35   36 1
  64   35   37 2
  65   36   38 1
  66   38   39 1
  67   38   63 1
  68   38   64 1
  69   39   65 1
  70   39   66 1
  71   39   67 1

#	End of record

