#	Name: ASD01120089
#	Creating user name:	WinNT
#	Creation time:	15. 06. 2019 18:58

#	Modifying user name:	WinNT
#	Modification time:	15. 06. 2019 18:58

#	Program:	/corina/corina34_cracker 3.40 0067  02.08.2006

@<TRIPOS>MOLECULE
ASD01120089
  51   54    0    0    0
SMALL
NO_CHARGES


@<TRIPOS>ATOM
   1 C1            -1.5467     1.8426     0.5749 C.ar    
   2 C2            -1.2411     0.4752     0.6169 C.ar    
   3 C3            -2.1790    -0.4666     0.2558 C.ar    
   4 C4            -3.4506    -0.0509    -0.1572 C.ar    
   5 C5            -3.7522     1.3330    -0.1970 C.ar    
   6 C6            -2.7828     2.2699     0.1805 C.ar    
   7 N7            -4.3996    -0.9283    -0.5195 N.ar    
   8 C8            -5.5819    -0.5087    -0.9025 C.ar    
   9 N9            -5.9085     0.7728    -0.9554 N.ar    
  10 C10           -5.0456     1.7226    -0.6191 C.ar    
  11 N11           -5.4001     3.0555    -0.6787 N.pl3   
  12 C12           -6.7129     3.4162    -0.9960 C.ar    
  13 C13           -7.7701     2.6185    -0.5846 C.ar    
  14 C14           -9.0762     2.9822    -0.9027 C.ar    
  15 C15           -9.3136     4.1457    -1.6327 C.ar    
  16 C16           -8.2555     4.9344    -2.0391 C.ar    
  17 C17           -6.9596     4.5775    -1.7191 C.ar    
  18 C18          -10.2119     2.1334    -0.4662 C.2     
  19 C19          -11.4979     2.4301    -0.7419 C.2     
  20 S20          -12.5065     1.1664    -0.0422 S.3     
  21 C21          -11.1166     0.3664     0.5491 C.2     
  22 N22          -10.0515     1.0136     0.2242 N.2     
  23 C23          -11.1344    -0.9194     1.3348 C.3     
  24 O24           -0.6040     2.7537     0.9361 O.3     
  25 C25           -1.0130     4.1216     0.9956 C.3     
  26 O26           -0.0064     0.0747     1.0176 O.3     
  27 C27            0.2441    -1.3321     1.0391 C.3     
  28 C28           -0.1348     4.8734     1.9978 C.3     
  29 C29           -0.8674     4.7581    -0.3881 C.3     
  30 H30           -1.9352    -1.5182     0.2907 H       
  31 H31           -3.0083     3.3257     0.1517 H       
  32 H32           -6.3220    -1.2418    -1.1877 H       
  33 H33           -4.7382     3.7419    -0.5005 H       
  34 H34           -7.5810     1.7178    -0.0195 H       
  35 H35          -10.3255     4.4303    -1.8808 H       
  36 H36           -8.4417     5.8351    -2.6052 H       
  37 H37           -6.1355     5.1980    -2.0391 H       
  38 H38          -11.8478     3.2900    -1.2938 H       
  39 H39          -12.1643    -1.2526     1.4629 H       
  40 H40          -10.5702    -1.6815     0.7973 H       
  41 H41          -10.6817    -0.7541     2.3124 H       
  42 H42           -2.0545     4.1760     1.3128 H       
  43 H43            1.2643    -1.5143     1.3768 H       
  44 H44           -0.4561    -1.8154     1.7205 H       
  45 H45            0.1151    -1.7394     0.0363 H       
  46 H46            0.9066     4.8190     1.6806 H       
  47 H47           -0.4467     5.9168     2.0432 H       
  48 H48           -0.2385     4.4200     2.9836 H       
  49 H49           -1.4931     4.2225    -1.1020 H       
  50 H50           -1.1794     5.8015    -0.3427 H       
  51 H51            0.1740     4.7037    -0.7052 H       
@<TRIPOS>BOND
   1    1    2 ar
   2    1   24 1
   3    1    6 ar
   4    2    3 ar
   5    2   26 1
   6    3    4 ar
   7    3   30 1
   8    4    5 ar
   9    4    7 ar
  10    5    6 ar
  11    5   10 ar
  12    6   31 1
  13    7    8 ar
  14    8    9 ar
  15    8   32 1
  16    9   10 ar
  17   10   11 1
  18   11   12 1
  19   11   33 1
  20   12   13 ar
  21   12   17 ar
  22   13   14 ar
  23   13   34 1
  24   14   15 ar
  25   14   18 1
  26   15   16 ar
  27   15   35 1
  28   16   17 ar
  29   16   36 1
  30   17   37 1
  31   18   19 2
  32   18   22 1
  33   19   20 1
  34   19   38 1
  35   20   21 1
  36   21   22 2
  37   21   23 1
  38   23   39 1
  39   23   40 1
  40   23   41 1
  41   24   25 1
  42   25   28 1
  43   25   29 1
  44   25   42 1
  45   26   27 1
  46   27   43 1
  47   27   44 1
  48   27   45 1
  49   28   46 1
  50   28   47 1
  51   28   48 1
  52   29   49 1
  53   29   50 1
  54   29   51 1

#	End of record

