#	Name: ASD01913377
#	Creating user name:	WinNT
#	Creation time:	15. 06. 2019 20:01

#	Modifying user name:	WinNT
#	Modification time:	15. 06. 2019 20:01

#	Program:	/corina/corina34_cracker 3.40 0067  02.08.2006

@<TRIPOS>MOLECULE
ASD01913377
  38   41    0    0    0
SMALL
NO_CHARGES


@<TRIPOS>ATOM
   1 C1            -0.0167     1.3799     0.0096 C.2     
   2 C2             0.0021    -0.0041     0.0020 C.2     
   3 C3             1.2500    -0.6667    -0.0135 C.2     
   4 N4             2.3628     0.0270    -0.0204 N.2     
   5 C5             2.3470     1.3658    -0.0130 C.2     
   6 N6             1.1637     2.0491     0.0020 N.pl3   
   7 N7             3.3241     2.2673    -0.0175 N.2     
   8 C8             2.8050     3.4927    -0.0060 C.2     
   9 N9             1.4902     3.4119     0.0062 N.2     
  10 C10           -1.2201    -0.7503     0.0101 C.1     
  11 C11           -2.2221    -1.3620     0.0168 C.1     
  12 C12           -3.4443    -2.1082     0.0249 C.ar    
  13 C13           -3.4137    -3.5047     0.0172 C.ar    
  14 C14           -4.5972    -4.2177     0.0256 C.ar    
  15 C15           -5.8467    -2.1665     0.0548 C.ar    
  16 C16           -4.6730    -1.4426     0.0466 C.ar    
  17 C17           -5.8112    -3.5497     0.0412 C.ar    
  18 N18            3.5379     4.6763    -0.0059 N.3     
  19 C19            4.9821     4.4018    -0.0210 C.3     
  20 C20            5.7473     5.7265    -0.0807 C.3     
  21 O21            5.3630     6.5436     1.0283 O.3     
  22 C22            3.9628     6.8313     1.0737 C.3     
  23 C23            3.1796     5.5178     1.1452 C.3     
  24 F24           -4.5708    -5.5685     0.0180 F       
  25 H25           -0.9535     1.9172     0.0170 H       
  26 H26            1.2874    -1.7461    -0.0192 H       
  27 H27           -2.4677    -4.0256     0.0042 H       
  28 H28           -6.7964    -1.6524     0.0715 H       
  29 H29           -4.7032    -0.3630     0.0572 H       
  30 H30           -6.7337    -4.1112     0.0474 H       
  31 H31            5.2594     3.8618     0.8843 H       
  32 H32            5.2289     3.7992    -0.8951 H       
  33 H33            6.8185     5.5305    -0.0345 H       
  34 H34            5.5107     6.2418    -1.0117 H       
  35 H35            3.7435     7.4342     1.9549 H       
  36 H36            3.6744     7.3787     0.1764 H       
  37 H37            2.1106     5.7297     1.1223 H       
  38 H38            3.4281     4.9956     2.0691 H       
@<TRIPOS>BOND
   1    1    2 2
   2    1    6 1
   3    1   25 1
   4    2    3 1
   5    2   10 1
   6    3    4 2
   7    3   26 1
   8    4    5 1
   9    5    6 1
  10    5    7 2
  11    6    9 1
  12    7    8 1
  13    8    9 2
  14    8   18 1
  15   10   11 3
  16   11   12 1
  17   12   13 ar
  18   12   16 ar
  19   13   14 ar
  20   13   27 1
  21   14   17 ar
  22   14   24 1
  23   15   16 ar
  24   15   17 ar
  25   15   28 1
  26   16   29 1
  27   17   30 1
  28   18   19 1
  29   18   23 1
  30   19   20 1
  31   19   31 1
  32   19   32 1
  33   20   21 1
  34   20   33 1
  35   20   34 1
  36   21   22 1
  37   22   23 1
  38   22   35 1
  39   22   36 1
  40   23   37 1
  41   23   38 1

#	End of record

