#	Name: ASD07301040
#	Creating user name:	WinNT
#	Creation time:	15. 06. 2019 21:10

#	Modifying user name:	WinNT
#	Modification time:	15. 06. 2019 21:10

#	Program:	/corina/corina34_cracker 3.40 0067  02.08.2006

@<TRIPOS>MOLECULE
ASD07301040
  46   48    0    0    0
SMALL
NO_CHARGES


@<TRIPOS>ATOM
   1 C1            -0.0178     1.4648     0.0101 C.2     
   2 C2             0.0021    -0.0041     0.0020 C.2     
   3 C3             1.2768    -0.6367    -0.0136 C.2     
   4 C4             2.3782     0.1591    -0.0198 C.2     
   5 N5             2.2576     1.5098    -0.0109 N.pl3   
   6 N6             1.1282     2.1157     0.0026 N.2     
   7 C7            -1.2986     2.1988     0.0202 C.2     
   8 O8            -2.3496     1.5875     0.0218 O.2     
   9 N9            -1.3029     3.5465     0.0275 N.am    
  10 O10           -1.0316    -0.6549     0.0088 O.2     
  11 C11           -2.5739     4.2749     0.0375 C.3     
  12 O12            1.3888    -1.9916    -0.0215 O.3     
  13 C13            2.7111    -2.5332    -0.0370 C.3     
  14 O14           -0.0789     4.2585     0.0256 O.3     
  15 C15            0.4173     4.5578    -1.2807 C.3     
  16 C16            3.4250     2.2810    -0.0170 C.ar    
  17 C17            3.6338     3.2343     0.9721 C.ar    
  18 C18            4.7987     3.9989     0.9610 C.ar    
  19 C19            5.7465     3.8029    -0.0413 C.ar    
  20 C20            5.5312     2.8534    -1.0206 C.ar    
  21 C21            4.3792     2.0902    -1.0088 C.ar    
  22 N22            5.9641     6.2020     3.6022 N.pl3   
  23 N23            4.6846     6.7193     3.3664 N.2     
  24 C24            4.1211     6.0176     2.4189 C.2     
  25 C25            5.0292     5.0200     2.0141 C.2     
  26 C26            6.1587     5.1621     2.7657 C.2     
  27 C27            6.9275     6.7070     4.5835 C.3     
  28 F28            2.7106     3.4196     1.9409 F       
  29 H29            3.3607    -0.2892    -0.0316 H       
  30 H30           -2.8843     4.4500     1.0676 H       
  31 H31           -2.4491     5.2305    -0.4717 H       
  32 H32           -3.3341     3.6862    -0.4759 H       
  33 H33            3.2508    -2.1999     0.8494 H       
  34 H34            2.6578    -3.6219    -0.0420 H       
  35 H35            3.2335    -2.1909    -0.9304 H       
  36 H36            0.5842     3.6297    -1.8274 H       
  37 H37           -0.3107     5.1683    -1.8148 H       
  38 H38            1.3570     5.1036    -1.1961 H       
  39 H39            6.6501     4.3943    -0.0526 H       
  40 H40            6.2678     2.7039    -1.7962 H       
  41 H41            4.2182     1.3462    -1.7749 H       
  42 H42            3.1313     6.1749     2.0165 H       
  43 H43            7.0480     4.5525     2.7022 H       
  44 H44            6.7790     6.1958     5.5347 H       
  45 H45            7.9406     6.5226     4.2262 H       
  46 H46            6.7795     7.7783     4.7198 H       
@<TRIPOS>BOND
   1    1    2 1
   2    1    6 2
   3    1    7 1
   4    2    3 1
   5    2   10 2
   6    3    4 2
   7    3   12 1
   8    4    5 1
   9    4   29 1
  10    5    6 1
  11    5   16 1
  12    7    8 2
  13    7    9 am
  14    9   11 1
  15    9   14 1
  16   11   30 1
  17   11   31 1
  18   11   32 1
  19   12   13 1
  20   13   33 1
  21   13   34 1
  22   13   35 1
  23   14   15 1
  24   15   36 1
  25   15   37 1
  26   15   38 1
  27   16   17 ar
  28   16   21 ar
  29   17   18 ar
  30   17   28 1
  31   18   19 ar
  32   18   25 1
  33   19   20 ar
  34   19   39 1
  35   20   21 ar
  36   20   40 1
  37   21   41 1
  38   22   23 1
  39   22   26 1
  40   22   27 1
  41   23   24 2
  42   24   25 1
  43   24   42 1
  44   25   26 2
  45   26   43 1
  46   27   44 1
  47   27   45 1
  48   27   46 1

#	End of record

