#	Name: ASD03731119
#	Creating user name:	WinNT
#	Creation time:	15. 06. 2019 20:45

#	Modifying user name:	WinNT
#	Modification time:	15. 06. 2019 20:45

#	Program:	/corina/corina34_cracker 3.40 0067  02.08.2006

@<TRIPOS>MOLECULE
ASD03731119
  42   47    0    0    0
SMALL
NO_CHARGES


@<TRIPOS>ATOM
   1 O1            -0.0175     1.4356     0.0099 O.3     
   2 C2             0.0021    -0.0041     0.0020 C.3     
   3 O3             1.2458    -0.3257    -0.6479 O.3     
   4 C4             2.0710     0.7344    -0.4029 C.ar    
   5 C5             1.2934     1.8179    -0.0005 C.ar    
   6 C6             3.4454     0.8643    -0.4904 C.ar    
   7 C7             4.0605     2.0737    -0.1815 C.ar    
   8 C8             3.2724     3.1521     0.2089 C.ar    
   9 C9             1.9024     3.0238     0.3034 C.ar    
  10 O10            5.3837     2.4044    -0.1843 O.3     
  11 C11            4.2101     4.3067     0.4408 C.3     
  12 C12            5.5145     3.8386    -0.2190 C.3     
  13 N13            3.6164     6.4785     0.8361 N.am    
  14 C14            3.7024     5.5823    -0.1672 C.2     
  15 C15            4.3973     4.6071     1.8983 C.ar    
  16 C16            4.8341     3.8654     2.9733 C.ar    
  17 C17            4.8981     4.4408     4.2318 C.ar    
  18 C18            4.5219     5.7622     4.4051 C.ar    
  19 C19            4.0844     6.5070     3.3298 C.ar    
  20 C20            4.0178     5.9369     2.0610 C.ar    
  21 O21            3.4245     5.7697    -1.3329 O.2     
  22 F22            5.3268     3.7147     5.2874 F       
  23 C23            3.1566     7.8587     0.6631 C.3     
  24 C24            1.6636     7.9190     0.8588 C.2     
  25 C25            1.0492     8.1322     2.0230 C.2     
  26 C26           -0.3340     8.1454     1.9591 C.2     
  27 C27           -0.8421     7.9428     0.7413 C.2     
  28 S28            0.4658     7.7267    -0.4146 S.3     
  29 Cl29          -2.5345     7.9058     0.3564 Cl      
  30 H30           -0.0097    -0.3929     1.0203 H       
  31 H31           -0.8404    -0.3954    -0.5682 H       
  32 H32            4.0451     0.0212    -0.8001 H       
  33 H33            1.3030     3.8662     0.6158 H       
  34 H34            6.3793     4.1626     0.3601 H       
  35 H35            5.5790     4.1968    -1.2464 H       
  36 H36            5.1272     2.8351     2.8351 H       
  37 H37            4.5711     6.2113     5.3861 H       
  38 H38            3.7920     7.5369     3.4725 H       
  39 H39            3.6455     8.4992     1.3972 H       
  40 H40            3.4055     8.2014    -0.3412 H       
  41 H41            1.5895     8.2826     2.9459 H       
  42 H42           -0.9544     8.3071     2.8282 H       
@<TRIPOS>BOND
   1    1    2 1
   2    1    5 1
   3    2    3 1
   4    2   30 1
   5    2   31 1
   6    3    4 1
   7    4    5 ar
   8    4    6 ar
   9    5    9 ar
  10    6    7 ar
  11    6   32 1
  12    7    8 ar
  13    7   10 1
  14    8    9 ar
  15    8   11 1
  16    9   33 1
  17   10   12 1
  18   11   12 1
  19   11   14 1
  20   11   15 1
  21   12   34 1
  22   12   35 1
  23   13   14 am
  24   13   20 1
  25   13   23 1
  26   14   21 2
  27   15   16 ar
  28   15   20 ar
  29   16   17 ar
  30   16   36 1
  31   17   18 ar
  32   17   22 1
  33   18   19 ar
  34   18   37 1
  35   19   20 ar
  36   19   38 1
  37   23   24 1
  38   23   39 1
  39   23   40 1
  40   24   25 2
  41   24   28 1
  42   25   26 1
  43   25   41 1
  44   26   27 2
  45   26   42 1
  46   27   28 1
  47   27   29 1

#	End of record

