#	Name: ASD01918596
#	Creating user name:	WinNT
#	Creation time:	15. 06. 2019 20:11

#	Modifying user name:	WinNT
#	Modification time:	15. 06. 2019 20:11

#	Program:	/corina/corina34_cracker 3.40 0067  02.08.2006

@<TRIPOS>MOLECULE
ASD01918596
  39   42    0    0    0
SMALL
NO_CHARGES


@<TRIPOS>ATOM
   1 C1            -0.0184     1.5028     0.0103 C.3     
   2 C2             0.0021    -0.0041     0.0020 C.2     
   3 C3             0.0064    -0.7191    -1.1246 C.2     
   4 S4             0.0323    -2.4258    -0.6885 S.3     
   5 C5             0.0349    -2.0124     0.9704 C.2     
   6 N6             0.0528    -2.9246     2.0175 N.am    
   7 C7             0.0694    -4.2472     1.7589 C.2     
   8 O8             0.0687    -4.6419     0.6084 O.2     
   9 C9             0.0884    -5.2145     2.8692 C.2     
  10 C10            0.1114    -6.5800     2.6204 C.2     
  11 C11            0.1291    -7.4740     3.7056 C.2     
  12 C12            0.1233    -7.0070     4.9975 C.2     
  13 N13            0.1010    -5.6785     5.2688 N.pl3   
  14 N14            0.0904    -4.9449     6.4644 N.2     
  15 C15            0.0681    -3.6753     6.1369 C.2     
  16 N16            0.0638    -3.5565     4.8149 N.2     
  17 C17            0.0896    -4.7574     4.2594 C.2     
  18 C18            0.1537    -8.9366     3.4527 C.ar    
  19 C19           -0.9932    -9.5998     3.0231 C.ar    
  20 N20           -0.9727   -10.8978     2.7979 N.ar    
  21 C21            0.1203   -11.6163     2.9671 C.ar    
  22 C22            1.2993   -11.0312     3.3920 C.ar    
  23 C23            1.3295    -9.6691     3.6363 C.ar    
  24 C24            2.5968    -8.9941     4.0940 C.3     
  25 N25            0.0228    -0.7233     1.1086 N.2     
  26 H26            1.0042     1.8801     0.0026 H       
  27 H27           -0.5455     1.8639    -0.8728 H       
  28 H28           -0.5286     1.8543     0.9071 H       
  29 H29           -0.0045    -0.3210    -2.1286 H       
  30 H30            0.0534    -2.6098     2.9350 H       
  31 H31            0.1153    -6.9510     1.6061 H       
  32 H32            0.1365    -7.7131     5.8147 H       
  33 H33            0.0546    -2.8522     6.8359 H       
  34 H34           -1.9077    -9.0452     2.8736 H       
  35 H35            0.0941   -12.6781     2.7712 H       
  36 H36            2.1879   -11.6299     3.5274 H       
  37 H37            2.6413    -9.0050     5.1830 H       
  38 H38            3.4581    -9.5260     3.6898 H       
  39 H39            2.6075    -7.9632     3.7402 H       
@<TRIPOS>BOND
   1    1    2 1
   2    1   26 1
   3    1   27 1
   4    1   28 1
   5    2   25 1
   6    2    3 2
   7    3    4 1
   8    3   29 1
   9    4    5 1
  10    5    6 1
  11    5   25 2
  12    6    7 am
  13    6   30 1
  14    7    8 2
  15    7    9 1
  16    9   17 1
  17    9   10 2
  18   10   11 1
  19   10   31 1
  20   11   12 2
  21   11   18 1
  22   12   13 1
  23   12   32 1
  24   13   17 1
  25   13   14 1
  26   14   15 2
  27   15   16 1
  28   15   33 1
  29   16   17 2
  30   18   23 ar
  31   18   19 ar
  32   19   20 ar
  33   19   34 1
  34   20   21 ar
  35   21   22 ar
  36   21   35 1
  37   22   23 ar
  38   22   36 1
  39   23   24 1
  40   24   37 1
  41   24   38 1
  42   24   39 1

#	End of record

