#	Name: ASD00840140
#	Creating user name:	WinNT
#	Creation time:	15. 06. 2019 18:37

#	Modifying user name:	WinNT
#	Modification time:	15. 06. 2019 18:37

#	Program:	/corina/corina34_cracker 3.40 0067  02.08.2006

@<TRIPOS>MOLECULE
ASD00840140
  35   37    0    0    0
SMALL
NO_CHARGES


@<TRIPOS>ATOM
   1 N1            -0.0161     1.3394     0.0094 N.am    
   2 C2             0.0021    -0.0041     0.0020 C.2     
   3 C3             1.4547    -0.4300    -0.0141 C.3     
   4 C4             2.2200     0.8734    -0.0144 C.ar    
   5 C5             3.5650     1.1687    -0.0261 C.ar    
   6 C6             3.9826     2.4887    -0.0234 C.ar    
   7 C7             3.0431     3.5079    -0.0090 C.ar    
   8 C8             1.6938     3.2122     0.0032 C.ar    
   9 C9             1.2685     1.8853     0.0001 C.ar    
  10 O10           -0.9638    -0.7377     0.0079 O.2     
  11 O11            1.7658    -1.1929     1.1534 O.3     
  12 F12            3.4490     4.7965    -0.0063 F       
  13 C13            1.7591    -1.2213    -1.2600 C.ar    
  14 C14            1.5529    -0.6550    -2.5099 C.ar    
  15 C15            1.8340    -1.3860    -3.6548 C.ar    
  16 C16            2.3184    -2.6755    -3.5481 C.ar    
  17 C17            2.5226    -3.2376    -2.3017 C.ar    
  18 C18            2.2489    -2.5087    -1.1588 C.ar    
  19 O19            1.0759     0.6134    -2.6122 O.3     
  20 C20            0.8881     1.1316    -3.9306 C.3     
  21 C21            0.3494     2.5610    -3.8449 C.3     
  22 Cl22           5.6770     2.8662    -0.0374 Cl      
  23 H23           -0.8287     1.8692     0.0163 H       
  24 H24            4.2934     0.3714    -0.0369 H       
  25 H25            0.9670     4.0110     0.0148 H       
  26 H26            1.2581    -2.0119     1.2349 H       
  27 H27            1.6739    -0.9476    -4.6288 H       
  28 H28            2.5374    -3.2450    -4.4392 H       
  29 H29            2.9006    -4.2460    -2.2204 H       
  30 H30            2.4138    -2.9483    -0.1861 H       
  31 H31            1.8413     1.1336    -4.4593 H       
  32 H32            0.1755     0.5064    -4.4686 H       
  33 H33            0.2062     2.9563    -4.8505 H       
  34 H34           -0.6037     2.5590    -3.3161 H       
  35 H35            1.0621     3.1862    -3.3068 H       
@<TRIPOS>BOND
   1    1    2 am
   2    1    9 1
   3    1   23 1
   4    2    3 1
   5    2   10 2
   6    3    4 1
   7    3   11 1
   8    3   13 1
   9    4    5 ar
  10    4    9 ar
  11    5    6 ar
  12    5   24 1
  13    6    7 ar
  14    6   22 1
  15    7    8 ar
  16    7   12 1
  17    8    9 ar
  18    8   25 1
  19   11   26 1
  20   13   14 ar
  21   13   18 ar
  22   14   15 ar
  23   14   19 1
  24   15   16 ar
  25   15   27 1
  26   16   17 ar
  27   16   28 1
  28   17   18 ar
  29   17   29 1
  30   18   30 1
  31   19   20 1
  32   20   21 1
  33   20   31 1
  34   20   32 1
  35   21   33 1
  36   21   34 1
  37   21   35 1

#	End of record

