#	Name: ASD03092919
#	Creating user name:	WinNT
#	Creation time:	15. 06. 2019 20:33

#	Modifying user name:	WinNT
#	Modification time:	15. 06. 2019 20:33

#	Program:	/corina/corina34_cracker 3.40 0067  02.08.2006

@<TRIPOS>MOLECULE
ASD03092919
  53   56    0    0    0
SMALL
NO_CHARGES


@<TRIPOS>ATOM
   1 C1            -0.4878     1.4492     0.0446 C.3     
   2 C2            -0.2049    -0.0308     0.0162 C.2     
   3 C3            -0.0911    -0.8414    -1.1419 C.2     
   4 C4            -0.2253    -0.4023    -2.5300 C.2     
   5 O5            -1.3251    -0.3210    -3.0372 O.2     
   6 C6             1.0018    -0.0508    -3.3311 C.3     
   7 C7             0.5987     0.2501    -4.7760 C.3     
   8 C8             0.8402     1.6686    -5.2960 C.3     
   9 C9             1.7206     0.5155    -5.7818 C.3     
  10 C10            0.1748    -2.1402    -0.7008 C.2     
  11 C11            0.3717    -3.3257    -1.5561 C.ar    
  12 C12           -0.4875    -3.5659    -2.6314 C.ar    
  13 C13           -0.2981    -4.6760    -3.4279 C.ar    
  14 C14            0.7396    -5.5521    -3.1648 C.ar    
  15 C15            1.5967    -5.3214    -2.1000 C.ar    
  16 F16            2.6078    -6.1817    -1.8496 F       
  17 C17            1.4219    -4.2106    -1.2979 C.ar    
  18 S18            0.9726    -6.9680    -4.1874 S.o2    
  19 N19            2.4250    -6.7806    -4.9606 N.am    
  20 O20            1.1248    -8.0756    -3.3104 O.2     
  21 O21           -0.0287    -6.9053    -5.1938 O.2     
  22 N22            0.2195    -2.1155     0.6597 N.pl3   
  23 C23            0.4733    -3.2720     1.5225 C.3     
  24 C24           -0.0065    -0.8316     1.0943 C.2     
  25 C25           -0.0325    -0.3942     2.5064 C.ar    
  26 C26           -0.7130    -1.1507     3.4617 C.ar    
  27 C27           -0.7334    -0.7378     4.7777 C.ar    
  28 C28           -0.0805     0.4247     5.1517 C.ar    
  29 Cl29          -0.1102     0.9377     6.8099 Cl      
  30 C30            0.5962     1.1794     4.2083 C.ar    
  31 C31            0.6281     0.7739     2.8903 C.ar    
  32 H32            0.4522     1.9976     0.1064 H       
  33 H33           -1.0164     1.7356    -0.8646 H       
  34 H34           -1.1037     1.6848     0.9124 H       
  35 H35            1.4799     0.8272    -2.8969 H       
  36 H36            1.6984    -0.8890    -3.3153 H       
  37 H37           -0.2864    -0.2744    -5.1361 H       
  38 H38            0.1139     2.0777    -5.9983 H       
  39 H39            1.2863     2.3875    -4.6087 H       
  40 H40            2.7460     0.4757    -5.4142 H       
  41 H41            1.5735     0.1659    -6.8037 H       
  42 H42           -1.2988    -2.8837    -2.8383 H       
  43 H43           -0.9621    -4.8619    -4.2592 H       
  44 H44            2.0923    -4.0288    -0.4709 H       
  45 H45            2.9624    -5.9895    -4.7982 H       
  46 H46            2.7383    -7.4618    -5.5759 H       
  47 H47            1.5447    -3.3648     1.6998 H       
  48 H48           -0.0419    -3.1359     2.4734 H       
  49 H49            0.1058    -4.1756     1.0362 H       
  50 H50           -1.2229    -2.0573     3.1711 H       
  51 H51           -1.2599    -1.3221     5.5178 H       
  52 H52            1.1036     2.0852     4.5059 H       
  53 H53            1.1600     1.3609     2.1562 H       
@<TRIPOS>BOND
   1    1    2 1
   2    1   32 1
   3    1   33 1
   4    1   34 1
   5    2   24 2
   6    2    3 1
   7    3    4 1
   8    3   10 2
   9    4    5 2
  10    4    6 1
  11    6    7 1
  12    6   35 1
  13    6   36 1
  14    7    9 1
  15    7    8 1
  16    7   37 1
  17    8    9 1
  18    8   38 1
  19    8   39 1
  20    9   40 1
  21    9   41 1
  22   10   11 1
  23   10   22 1
  24   11   17 ar
  25   11   12 ar
  26   12   13 ar
  27   12   42 1
  28   13   14 ar
  29   13   43 1
  30   14   15 ar
  31   14   18 1
  32   15   16 1
  33   15   17 ar
  34   17   44 1
  35   18   19 am
  36   18   20 2
  37   18   21 2
  38   19   45 1
  39   19   46 1
  40   22   23 1
  41   22   24 1
  42   23   47 1
  43   23   48 1
  44   23   49 1
  45   24   25 1
  46   25   31 ar
  47   25   26 ar
  48   26   27 ar
  49   26   50 1
  50   27   28 ar
  51   27   51 1
  52   28   29 1
  53   28   30 ar
  54   30   31 ar
  55   30   52 1
  56   31   53 1

#	End of record

