#	Name: ASD03091552
#	Creating user name:	WinNT
#	Creation time:	15. 06. 2019 20:30

#	Modifying user name:	WinNT
#	Modification time:	15. 06. 2019 20:30

#	Program:	/corina/corina34_cracker 3.40 0067  02.08.2006

@<TRIPOS>MOLECULE
ASD03091552
  18   18    0    0    0
SMALL
NO_CHARGES


@<TRIPOS>ATOM
   1 C1            -0.0173     1.4248     0.0099 C.3     
   2 O2             0.0021    -0.0041     0.0020 O.3     
   3 C3             1.3965     1.9464    -0.0008 C.ar    
   4 C4             1.6310     3.3101     0.0043 C.ar    
   5 C5             2.9291     3.7882    -0.0051 C.ar    
   6 C6             3.9911     2.9034    -0.0195 C.ar    
   7 C7             3.7562     1.5413    -0.0250 C.ar    
   8 C8             2.4591     1.0629    -0.0099 C.ar    
   9 N9             3.1808     5.2468    -0.0001 N.pl3   
  10 O10            4.3238     5.6676    -0.0084 O.2     
  11 O11            2.2449     6.0262     0.0122 O.2     
  12 Cl12           0.2968     4.4206     0.0218 Cl      
  13 H13           -0.5445     1.7859    -0.8732 H       
  14 H14           -0.5275     1.7763     0.9067 H       
  15 H15           -0.8759    -0.4094     0.0082 H       
  16 H16            5.0046     3.2765    -0.0268 H       
  17 H17            4.5862     0.8505    -0.0366 H       
  18 H18            2.2762    -0.0015    -0.0098 H       
@<TRIPOS>BOND
   1    1    2 1
   2    1    3 1
   3    1   13 1
   4    1   14 1
   5    2   15 1
   6    3    4 ar
   7    3    8 ar
   8    4    5 ar
   9    4   12 1
  10    5    6 ar
  11    5    9 1
  12    6    7 ar
  13    6   16 1
  14    7    8 ar
  15    7   17 1
  16    8   18 1
  17    9   10 2
  18    9   11 2

#	End of record

