#	Name: ASD01840514
#	Creating user name:	WinNT
#	Creation time:	15. 06. 2019 19:37

#	Modifying user name:	WinNT
#	Modification time:	15. 06. 2019 19:37

#	Program:	/corina/corina34_cracker 3.40 0067  02.08.2006

@<TRIPOS>MOLECULE
ASD01840514
  46   49    0    0    0
SMALL
NO_CHARGES


@<TRIPOS>ATOM
   1 C1            -1.2720     1.1728     0.1802 C.3     
   2 C2            -0.5696    -0.1566     0.0776 C.ar    
   3 C3            -0.5287    -0.8461    -1.1203 C.ar    
   4 Cl4           -1.2889    -0.1920    -2.5373 Cl      
   5 N5             0.0993    -2.0137    -1.1732 N.ar    
   6 C6             0.6805    -2.5205    -0.1048 C.ar    
   7 C7             1.3818    -3.8499    -0.2137 C.3     
   8 O8             2.7490    -3.6393    -0.5720 O.3     
   9 N9             0.6661    -1.8972     1.0561 N.ar    
  10 C10            0.0610    -0.7201     1.1878 C.ar    
  11 N11            0.0525    -0.0660     2.4093 N.3     
  12 C12            1.2296     0.8006     2.5503 C.3     
  13 C13            1.1141     1.6141     3.8414 C.3     
  14 C14            1.0147     0.6586     5.0337 C.3     
  15 H15            1.9242     0.0615     5.0988 H       
  16 O16            0.8509     1.4119     6.2370 O.3     
  17 C17            1.2557     0.8230     7.3939 C.ar    
  18 C18            1.2262     1.5446     8.5858 C.ar    
  19 C19            1.6286     0.9726     9.7587 C.ar    
  20 C20            2.0752    -0.3460     9.7746 C.ar    
  21 N21            2.5332    -1.1799    10.7635 N.pl3   
  22 H22            2.6222    -0.9460    11.7006 H       
  23 N23            2.8504    -2.4216    10.2033 N.2     
  24 C24            2.6159    -2.4075     8.9221 C.2     
  25 C25            2.1083    -1.0838     8.5758 C.ar    
  26 C26            1.6877    -0.4866     7.3821 C.ar    
  27 C27           -0.1909    -0.2649     4.8386 C.3     
  28 H28           -0.2421    -0.9758     5.6633 H       
  29 F29           -1.3632     0.4979     4.8061 F       
  30 C30           -0.0375    -1.0240     3.5186 C.3     
  31 H31           -0.5686     1.9738    -0.0468 H       
  32 H32           -2.0984     1.2028    -0.5299 H       
  33 H33           -1.6571     1.3031     1.1916 H       
  34 H34            1.3328    -4.3661     0.7451 H       
  35 H35            0.8951    -4.4559    -0.9779 H       
  36 H36            3.2625    -4.4539    -0.6600 H       
  37 H37            2.1299     0.1872     2.5869 H       
  38 H38            1.2862     1.4778     1.6981 H       
  39 H39            1.9953     2.2457     3.9536 H       
  40 H40            0.2213     2.2380     3.7996 H       
  41 H41            0.8815     2.5680     8.5818 H       
  42 H42            1.6008     1.5438    10.6749 H       
  43 H43            2.7699    -3.2289     8.2381 H       
  44 H44            1.7056    -1.0455     6.4581 H       
  45 H45           -0.9013    -1.6719     3.3697 H       
  46 H46            0.8687    -1.6288     3.5507 H       
@<TRIPOS>BOND
   1    1    2 1
   2    1   31 1
   3    1   32 1
   4    1   33 1
   5    2   10 ar
   6    2    3 ar
   7    3    4 1
   8    3    5 ar
   9    5    6 ar
  10    6    7 1
  11    6    9 ar
  12    7    8 1
  13    7   34 1
  14    7   35 1
  15    8   36 1
  16    9   10 ar
  17   10   11 1
  18   11   30 1
  19   11   12 1
  20   12   13 1
  21   12   37 1
  22   12   38 1
  23   13   14 1
  24   13   39 1
  25   13   40 1
  26   14   15 1
  27   14   16 1
  28   14   27 1
  29   16   17 1
  30   17   26 ar
  31   17   18 ar
  32   18   19 ar
  33   18   41 1
  34   19   20 ar
  35   19   42 1
  36   20   25 ar
  37   20   21 1
  38   21   22 1
  39   21   23 1
  40   23   24 2
  41   24   25 1
  42   24   43 1
  43   25   26 ar
  44   26   44 1
  45   27   28 1
  46   27   29 1
  47   27   30 1
  48   30   45 1
  49   30   46 1

#	End of record

