#	Name: ASD02320045
#	Creating user name:	WinNT
#	Creation time:	15. 06. 2019 20:20

#	Modifying user name:	WinNT
#	Modification time:	15. 06. 2019 20:20

#	Program:	/corina/corina34_cracker 3.40 0067  02.08.2006

@<TRIPOS>MOLECULE
ASD02320045
  92   98    0    0    0
SMALL
NO_CHARGES


@<TRIPOS>ATOM
   1 C1             0.0117     1.3659     0.1427 C.ar    
   2 C2             0.0389    -0.0225     0.1267 C.ar    
   3 C3             1.2343    -0.7042     0.0967 C.ar    
   4 C4             2.4372     0.0076     0.0821 C.ar    
   5 C5             2.4052     1.4210     0.0984 C.ar    
   6 C6             1.1838     2.0904     0.1287 C.ar    
   7 N7             3.6283    -0.6229     0.0532 N.2     
   8 C8             4.7568     0.0403     0.0398 C.2     
   9 N9             4.8194     1.4072     0.0538 N.am    
  10 C10            3.6850     2.1447     0.0829 C.2     
  11 O11            3.7228     3.3612     0.0953 O.2     
  12 C12            6.0208    -0.7220     0.0086 C.ar    
  13 C13            6.9967    -0.5003     0.9834 C.ar    
  14 C14            8.1745    -1.2139     0.9510 C.ar    
  15 C15            8.3928    -2.1529    -0.0497 C.ar    
  16 C16            7.4249    -2.3761    -1.0214 C.ar    
  17 C17            6.2419    -1.6711    -0.9925 C.ar    
  18 N18           12.1622     4.6440    -5.7233 N.pl3   
  19 C19           12.5303     5.7890    -6.3433 C.2     
  20 N20           12.3048     3.6715    -6.5543 N.2     
  21 N21           12.7439     4.1110    -7.6806 N.2     
  22 C22           12.9012     5.4368    -7.5964 C.2     
  23 C23           13.3936     6.3572    -8.6834 C.3     
  24 N24           14.8584     6.3810    -8.6766 N.am    
  25 C25           15.5497     5.4319    -9.3499 C.2     
  26 C26           15.5195     7.3658    -7.9943 C.2     
  27 N27           16.8250     7.4484    -7.9461 N.2     
  28 C28           17.6143     6.5546    -8.5746 C.ar    
  29 C29           17.0174     5.5044    -9.3089 C.ar    
  30 C30           19.0083     6.6454    -8.5212 C.ar    
  31 C31           19.7746     5.7200    -9.1717 C.ar    
  32 C32           19.1896     4.6849    -9.8896 C.ar    
  33 C33           17.8184     4.5712    -9.9646 C.ar    
  34 O34           14.9777     4.5514    -9.9658 O.2     
  35 C35           14.7231     8.3831    -7.2796 C.ar    
  36 C36           14.9304     8.6038    -5.9158 C.ar    
  37 C37           14.1853     9.5538    -5.2527 C.ar    
  38 C38           13.2284    10.2921    -5.9384 C.ar    
  39 C39           13.0191    10.0756    -7.2949 C.ar    
  40 C40           13.7641     9.1315    -7.9666 C.ar    
  41 O41           12.4958    11.2272    -5.2810 O.3     
  42 S42           13.1195    12.6155    -5.2821 S.o2    
  43 O43           12.3396    13.4065    -4.3960 O.2     
  44 O44           14.5194    12.4266    -5.1278 O.2     
  45 O45           12.9155    13.2000    -6.6726 O.3     
  46 Na46          11.0541    13.8059    -7.0307 Du      
  47 C47            6.1225     2.0764     0.0377 C.3     
  48 C48            6.6170     2.1954    -1.4053 C.3     
  49 C49            7.9779     2.8943    -1.4220 C.3     
  50 C50            8.4724     3.0133    -2.8650 C.3     
  51 C51            9.8333     3.7122    -2.8818 C.3     
  52 C52           10.3278     3.8312    -4.3248 C.3     
  53 C53           11.6887     4.5301    -4.3416 C.3     
  54 O54            9.5552    -2.8539    -0.0784 O.3     
  55 S55            9.5116    -4.1572     0.7065 S.o2    
  56 O56           10.8437    -4.6510     0.7385 O.2     
  57 O57            8.7517    -3.8948     1.8782 O.2     
  58 O58            8.7043    -5.1515    -0.1157 O.3     
  59 Na59           9.6814    -5.8850    -1.6865 Du      
  60 H60           -0.9366     1.8824     0.1617 H       
  61 H61           -0.8895    -0.5742     0.1384 H       
  62 H62            1.2428    -1.7841     0.0850 H       
  63 H63            1.1558     3.1699     0.1415 H       
  64 H64            6.8281     0.2299     1.7611 H       
  65 H65            8.9294    -1.0430     1.7042 H       
  66 H66            7.5986    -3.1066    -1.7977 H       
  67 H67            5.4899    -1.8455    -1.7478 H       
  68 H68           12.5282     6.7839    -5.9230 H       
  69 H69           13.0405     5.9990    -9.6504 H       
  70 H70           13.0131     7.3633    -8.5075 H       
  71 H71           19.4782     7.4449    -7.9677 H       
  72 H72           20.8511     5.7946    -9.1272 H       
  73 H73           19.8149     3.9650   -10.3967 H       
  74 H74           17.3684     3.7642   -10.5238 H       
  75 H75           15.6737     8.0301    -5.3821 H       
  76 H76           14.3447     9.7247    -4.1983 H       
  77 H77           12.2745    10.6515    -7.8243 H       
  78 H78           13.6011     8.9641    -9.0210 H       
  79 H79            6.0253     3.0715     0.4717 H       
  80 H80            6.8371     1.4943     0.6198 H       
  81 H81            6.7142     1.2002    -1.8393 H       
  82 H82            5.9025     2.7774    -1.9873 H       
  83 H83            7.8807     3.8894    -0.9880 H       
  84 H84            8.6925     2.3123    -0.8400 H       
  85 H85            8.5696     2.0181    -3.2990 H       
  86 H86            7.7579     3.5953    -3.4471 H       
  87 H87            9.7361     4.7073    -2.4478 H       
  88 H88           10.5479     3.1302    -2.2997 H       
  89 H89           10.4250     2.8361    -4.7588 H       
  90 H90            9.6133     4.4132    -4.9069 H       
  91 H91           12.4033     3.9481    -3.7595 H       
  92 H92           11.5915     5.5252    -3.9076 H       
@<TRIPOS>BOND
   1    1    2 ar
   2    1    6 ar
   3    1   60 1
   4    2    3 ar
   5    2   61 1
   6    3    4 ar
   7    3   62 1
   8    4    5 ar
   9    4    7 1
  10    5    6 ar
  11    5   10 1
  12    6   63 1
  13    7    8 2
  14    8    9 1
  15    8   12 1
  16    9   10 am
  17    9   47 1
  18   10   11 2
  19   12   13 ar
  20   12   17 ar
  21   13   14 ar
  22   13   64 1
  23   14   15 ar
  24   14   65 1
  25   15   16 ar
  26   15   54 1
  27   16   17 ar
  28   16   66 1
  29   17   67 1
  30   18   19 1
  31   18   20 1
  32   18   53 1
  33   19   22 2
  34   19   68 1
  35   20   21 2
  36   21   22 1
  37   22   23 1
  38   23   24 1
  39   23   69 1
  40   23   70 1
  41   24   25 am
  42   24   26 1
  43   25   34 2
  44   25   29 1
  45   26   27 2
  46   26   35 1
  47   27   28 1
  48   28   29 ar
  49   28   30 ar
  50   29   33 ar
  51   30   31 ar
  52   30   71 1
  53   31   32 ar
  54   31   72 1
  55   32   33 ar
  56   32   73 1
  57   33   74 1
  58   35   36 ar
  59   35   40 ar
  60   36   37 ar
  61   36   75 1
  62   37   38 ar
  63   37   76 1
  64   38   39 ar
  65   38   41 1
  66   39   40 ar
  67   39   77 1
  68   40   78 1
  69   41   42 1
  70   42   43 2
  71   42   44 2
  72   42   45 1
  73   45   46 1
  74   47   48 1
  75   47   79 1
  76   47   80 1
  77   48   49 1
  78   48   81 1
  79   48   82 1
  80   49   50 1
  81   49   83 1
  82   49   84 1
  83   50   51 1
  84   50   85 1
  85   50   86 1
  86   51   52 1
  87   51   87 1
  88   51   88 1
  89   52   53 1
  90   52   89 1
  91   52   90 1
  92   53   91 1
  93   53   92 1
  94   54   55 1
  95   55   56 2
  96   55   57 2
  97   55   58 1
  98   58   59 1

#	End of record

