#	Name: ASD01200168
#	Creating user name:	WinNT
#	Creation time:	15. 06. 2019 19:08

#	Modifying user name:	WinNT
#	Modification time:	15. 06. 2019 19:08

#	Program:	/corina/corina34_cracker 3.40 0067  02.08.2006

@<TRIPOS>MOLECULE
ASD01200168
  50   52    0    0    0
SMALL
NO_CHARGES


@<TRIPOS>ATOM
   1 C1             0.9909     1.3457    -1.7456 C.2     
   2 C2             0.8784    -0.1535    -1.6411 C.3     
   3 O3             1.5932     1.9692    -0.8975 O.2     
   4 N4             0.4269     1.9930    -2.7846 N.am    
   5 C5             0.4397     3.3863    -2.8276 C.ar    
   6 C6            -0.0401     4.0542    -3.9510 C.ar    
   7 N7             0.9039     4.0790    -1.7965 N.ar    
   8 N8            -0.0267     5.3732    -3.9878 N.ar    
   9 C9             0.4417     6.0602    -2.9594 C.ar    
  10 C10            0.9142     5.4003    -1.8406 C.ar    
  11 S11            1.7403    -0.7220    -0.1496 S.3     
  12 N12            2.5888    -3.2724    -0.3975 N.am    
  13 C13            1.3725    -2.4980    -0.1178 C.3     
  14 C14            0.9282    -2.9135     1.2654 C.2     
  15 C15            1.8018    -3.8162     1.6998 C.2     
  16 C16            2.8302    -4.0434     0.6794 C.2     
  17 O17            3.7635    -4.8153     0.7895 O.2     
  18 C18            1.7440    -4.5033     3.0398 C.3     
  19 C19           -0.2770    -2.4012     2.0112 C.3     
  20 C20            3.3880    -3.2201    -1.6242 C.3     
  21 C21            4.4526    -2.1625    -1.4855 C.ar    
  22 C22            5.6910    -2.4937    -0.9675 C.ar    
  23 C23            6.6686    -1.5260    -0.8392 C.ar    
  24 C24            6.4069    -0.2211    -1.2307 C.ar    
  25 C25            5.1634     0.1086    -1.7502 C.ar    
  26 C26            4.1911    -0.8639    -1.8816 C.ar    
  27 O27            7.3667     0.7327    -1.1052 O.3     
  28 C28            7.0270     2.0546    -1.5285 C.3     
  29 H29           -0.1728    -0.4358    -1.5831 H       
  30 H30            1.3303    -0.6139    -2.5197 H       
  31 H31            0.0121     1.4893    -3.5023 H       
  32 H32           -0.4225     3.4937    -4.7913 H       
  33 H33            0.4515     7.1396    -2.9922 H       
  34 H34            1.2918     5.9649    -1.0009 H       
  35 H35            0.5997    -2.7347    -0.8491 H       
  36 H36            1.1587    -5.4188     2.9537 H       
  37 H37            2.7547    -4.7475     3.3668 H       
  38 H38            1.2766    -3.8405     3.7681 H       
  39 H39           -1.1164    -3.0786     1.8543 H       
  40 H40           -0.0490    -2.3458     3.0757 H       
  41 H41           -0.5372    -1.4088     1.6432 H       
  42 H42            3.8581    -4.1889    -1.7931 H       
  43 H43            2.7425    -2.9773    -2.4683 H       
  44 H44            5.8942    -3.5096    -0.6625 H       
  45 H45            7.6357    -1.7851    -0.4342 H       
  46 H46            4.9572     1.1238    -2.0557 H       
  47 H47            3.2246    -0.6088    -2.2904 H       
  48 H48            7.8798     2.7159    -1.3744 H       
  49 H49            6.7641     2.0412    -2.5862 H       
  50 H50            6.1781     2.4152    -0.9476 H       
@<TRIPOS>BOND
   1    1    2 1
   2    1    3 2
   3    1    4 am
   4    2   11 1
   5    2   29 1
   6    2   30 1
   7    4    5 1
   8    4   31 1
   9    5    6 ar
  10    5    7 ar
  11    6    8 ar
  12    6   32 1
  13    7   10 ar
  14    8    9 ar
  15    9   10 ar
  16    9   33 1
  17   10   34 1
  18   11   13 1
  19   12   13 1
  20   12   16 am
  21   12   20 1
  22   13   14 1
  23   13   35 1
  24   14   15 2
  25   14   19 1
  26   15   16 1
  27   15   18 1
  28   16   17 2
  29   18   36 1
  30   18   37 1
  31   18   38 1
  32   19   39 1
  33   19   40 1
  34   19   41 1
  35   20   21 1
  36   20   42 1
  37   20   43 1
  38   21   22 ar
  39   21   26 ar
  40   22   23 ar
  41   22   44 1
  42   23   24 ar
  43   23   45 1
  44   24   25 ar
  45   24   27 1
  46   25   26 ar
  47   25   46 1
  48   26   47 1
  49   27   28 1
  50   28   48 1
  51   28   49 1
  52   28   50 1

#	End of record

