#	Name: ASD01140487
#	Creating user name:	WinNT
#	Creation time:	15. 06. 2019 19:00

#	Modifying user name:	WinNT
#	Modification time:	15. 06. 2019 19:00

#	Program:	/corina/corina34_cracker 3.40 0067  02.08.2006

@<TRIPOS>MOLECULE
ASD01140487
  48   51    0    0    0
SMALL
NO_CHARGES


@<TRIPOS>ATOM
   1 C1            -0.0451     1.3763    -0.3214 C.ar    
   2 C2            -0.0092    -0.0129    -0.1309 C.ar    
   3 C3             2.3592     0.1273    -0.5375 C.ar    
   4 N4             2.2059     1.4324    -0.6970 N.ar    
   5 N5             1.0700     2.0176    -0.5942 N.ar    
   6 C6            -0.9632    -1.0096     0.1658 C.2     
   7 N7            -0.3562    -2.1616     0.2296 N.2     
   8 N8             1.0124    -1.9896    -0.0183 N.pl3   
   9 C9             1.2392    -0.6603    -0.2433 C.ar    
  10 C10            1.9790    -3.0025    -0.0326 C.ar    
  11 C11            3.1780    -2.8298     0.6467 C.ar    
  12 C12            4.1291    -3.8310     0.6311 C.ar    
  13 C13            3.8889    -5.0042    -0.0604 C.ar    
  14 C14            2.6963    -5.1791    -0.7382 C.ar    
  15 C15            1.7385    -4.1843    -0.7213 C.ar    
  16 C16           -1.3490     2.1252    -0.2207 C.3     
  17 S17            3.9519    -0.6098    -0.6940 S.3     
  18 C18            5.0217     0.8063    -1.0695 C.3     
  19 C19            6.4427     0.3324    -1.2351 C.2     
  20 N20            7.4190     1.2167    -1.5200 N.am    
  21 O21            6.7076    -0.8447    -1.1120 O.2     
  22 C22            7.1229     2.6505    -1.6679 C.3     
  23 C23            8.8137     0.7778    -1.6862 C.3     
  24 C24            9.3475     1.3520    -3.0035 C.3     
  25 O25            9.1187     2.7630    -3.0289 O.3     
  26 C26            7.7357     3.1373    -2.9861 C.3     
  27 C27            4.9293    -6.0944    -0.0757 C.3     
  28 H28           -2.0201    -0.8453     0.3156 H       
  29 H29            3.3665    -1.9135     1.1863 H       
  30 H30            5.0617    -3.6973     1.1592 H       
  31 H31            2.5120    -6.0962    -1.2778 H       
  32 H32            0.8072    -4.3214    -1.2508 H       
  33 H33           -1.5041     2.4477     0.8088 H       
  34 H34           -1.3185     2.9972    -0.8740 H       
  35 H35           -2.1673     1.4722    -0.5242 H       
  36 H36            4.6868     1.2801    -1.9922 H       
  37 H37            4.9717     1.5261    -0.2525 H       
  38 H38            6.0437     2.8025    -1.6866 H       
  39 H39            7.5576     3.2030    -0.8349 H       
  40 H40            9.4157     1.1449    -0.8550 H       
  41 H41            8.8547    -0.3110    -1.7170 H       
  42 H42           10.4169     1.1552    -3.0796 H       
  43 H43            8.8300     0.8841    -3.8409 H       
  44 H44            7.2094     2.6791    -3.8234 H       
  45 H45            7.6482     4.2219    -3.0497 H       
  46 H46            4.7614    -6.7687     0.7641 H       
  47 H47            4.8574    -6.6522    -1.0094 H       
  48 H48            5.9215    -5.6509     0.0071 H       
@<TRIPOS>BOND
   1    1    2 ar
   2    1    5 ar
   3    1   16 1
   4    2    6 1
   5    2    9 ar
   6    3    4 ar
   7    3   17 1
   8    3    9 ar
   9    4    5 ar
  10    6    7 2
  11    6   28 1
  12    7    8 1
  13    8    9 1
  14    8   10 1
  15   10   11 ar
  16   10   15 ar
  17   11   12 ar
  18   11   29 1
  19   12   13 ar
  20   12   30 1
  21   13   14 ar
  22   13   27 1
  23   14   15 ar
  24   14   31 1
  25   15   32 1
  26   16   33 1
  27   16   34 1
  28   16   35 1
  29   17   18 1
  30   18   19 1
  31   18   36 1
  32   18   37 1
  33   19   20 am
  34   19   21 2
  35   20   23 1
  36   20   22 1
  37   22   26 1
  38   22   38 1
  39   22   39 1
  40   23   24 1
  41   23   40 1
  42   23   41 1
  43   24   25 1
  44   24   42 1
  45   24   43 1
  46   25   26 1
  47   26   44 1
  48   26   45 1
  49   27   46 1
  50   27   47 1
  51   27   48 1

#	End of record

