#	Name: ASD03091294
#	Creating user name:	WinNT
#	Creation time:	15. 06. 2019 20:30

#	Modifying user name:	WinNT
#	Modification time:	15. 06. 2019 20:30

#	Program:	/corina/corina34_cracker 3.40 0067  02.08.2006

@<TRIPOS>MOLECULE
ASD03091294
  50   54    0    0    0
SMALL
NO_CHARGES


@<TRIPOS>ATOM
   1 N1             0.0529     1.3858     0.0159 N.2     
   2 C2            -0.0693     0.0803    -0.0138 C.2     
   3 N3             1.0065    -0.7699    -0.0270 N.am    
   4 C4             2.2673    -0.2783    -0.0093 C.2     
   5 C5             2.4265     1.1828     0.0241 C.ar    
   6 C6             3.6839     1.7831     0.0437 C.ar    
   7 C7             3.7765     3.1640     0.0745 C.ar    
   8 C8             2.6235     3.9493     0.0863 C.ar    
   9 C9             1.3848     3.3761     0.0678 C.ar    
  10 C10            1.2610     1.9831     0.0357 C.ar    
  11 O11            3.2336    -1.0185    -0.0203 O.2     
  12 S12           -1.9041    -1.9785    -0.8555 S.3     
  13 C13           -3.5094    -1.7698    -0.3061 C.2     
  14 N14           -3.6058    -0.6949     0.4065 N.2     
  15 C15           -2.5163     0.0140     0.5778 C.2     
  16 C16           -1.4196    -0.4971    -0.0334 C.2     
  17 C17           -4.6509    -2.7055    -0.6099 C.3     
  18 C18            0.7899    -2.2184    -0.0600 C.3     
  19 N19            7.8364     4.2641    -0.7276 N.3     
  20 C20            7.4693     3.4066     0.4097 C.3     
  21 C21            6.1037     2.7752     0.1876 C.3     
  22 N22            5.0336     3.7755     0.0944 N.3     
  23 C23            5.2232     4.6283    -1.0874 C.3     
  24 C24            5.9810     5.8932    -0.7132 C.3     
  25 C25            7.4547     5.6564    -0.4510 C.3     
  26 C26            7.4099     3.8119    -2.0345 C.3     
  27 C27            5.8972     3.8203    -2.1813 C.3     
  28 H28            4.5776     1.1768     0.0353 H       
  29 H29            2.7122     5.0254     0.1107 H       
  30 H30            0.5014     3.9973     0.0780 H       
  31 H31           -2.4945     0.9261     1.1556 H       
  32 H32           -4.7072    -3.4728     0.1623 H       
  33 H33           -5.5848    -2.1439    -0.6329 H       
  34 H34           -4.4864    -3.1767    -1.5790 H       
  35 H35            0.6391    -2.5399    -1.0905 H       
  36 H36            1.6609    -2.7256     0.3551 H       
  37 H37           -0.0915    -2.4675     0.5310 H       
  38 H38            8.2149     2.6195     0.5214 H       
  39 H39            7.4435     4.0074     1.3188 H       
  40 H40            6.1281     2.1972    -0.7362 H       
  41 H41            5.8868     2.1024     1.0172 H       
  42 H42            4.2390     4.9193    -1.4545 H       
  43 H43            5.8819     6.6132    -1.5255 H       
  44 H44            5.5304     6.3181     0.1837 H       
  45 H45            7.6716     5.8843     0.5926 H       
  46 H46            8.0404     6.3192    -1.0879 H       
  47 H47            7.8423     4.4645    -2.7929 H       
  48 H48            7.7749     2.7973    -2.1940 H       
  49 H49            5.5316     2.7943    -2.1403 H       
  50 H50            5.6376     4.2488    -3.1493 H       
@<TRIPOS>BOND
   1    1    2 2
   2    1   10 1
   3    2    3 1
   4    2   16 1
   5    3    4 am
   6    3   18 1
   7    4    5 1
   8    4   11 2
   9    5    6 ar
  10    5   10 ar
  11    6    7 ar
  12    6   28 1
  13    7    8 ar
  14    7   22 1
  15    8    9 ar
  16    8   29 1
  17    9   10 ar
  18    9   30 1
  19   12   13 1
  20   12   16 1
  21   13   14 2
  22   13   17 1
  23   14   15 1
  24   15   16 2
  25   15   31 1
  26   17   32 1
  27   17   33 1
  28   17   34 1
  29   18   35 1
  30   18   36 1
  31   18   37 1
  32   19   20 1
  33   19   25 1
  34   19   26 1
  35   20   21 1
  36   20   38 1
  37   20   39 1
  38   21   22 1
  39   21   40 1
  40   21   41 1
  41   22   23 1
  42   23   24 1
  43   23   27 1
  44   23   42 1
  45   24   25 1
  46   24   43 1
  47   24   44 1
  48   25   45 1
  49   25   46 1
  50   26   27 1
  51   26   47 1
  52   26   48 1
  53   27   49 1
  54   27   50 1

#	End of record

