#	Name: ASD02038093
#	Creating user name:	WinNT
#	Creation time:	15. 06. 2019 20:16

#	Modifying user name:	WinNT
#	Modification time:	15. 06. 2019 20:16

#	Program:	/corina/corina34_cracker 3.40 0067  02.08.2006

@<TRIPOS>MOLECULE
ASD02038093
  55   57    0    0    0
SMALL
NO_CHARGES


@<TRIPOS>ATOM
   1 C1            -0.4557     1.2156     1.9518 C.ar    
   2 C2             0.5858     1.4500     2.8307 C.ar    
   3 C3            -0.3610     0.2004     1.0176 C.ar    
   4 C4             0.7748    -0.5830     0.9596 C.ar    
   5 C5             1.8229    -0.3503     1.8411 C.ar    
   6 C6             1.7245     0.6703     2.7782 C.ar    
   7 N7             2.9729    -1.1411     1.7855 N.3     
   8 C8             3.9486    -0.7238     2.8021 C.3     
   9 C9             5.1568    -1.6624     2.7613 C.3     
  10 N10            5.7534    -1.6306     1.4187 N.3     
  11 C11            4.7777    -2.0479     0.4020 C.3     
  12 C12            3.5695    -1.1093     0.4428 C.3     
  13 C13            6.9629    -2.4623     1.3602 C.3     
  14 C14            8.0460    -1.8506     2.2510 C.3     
  15 C15            9.2686    -2.7702     2.2719 C.3     
  16 O16            8.4207    -0.5716     1.7353 O.3     
  17 O17           10.2336    -2.2588     3.1935 O.3     
  18 C18           11.3883    -2.9637     3.3330 C.ar    
  19 C19           12.3675    -2.5231     4.2109 C.ar    
  20 C20           13.5402    -3.2386     4.3535 C.ar    
  21 C21           13.7388    -4.3993     3.6175 C.ar    
  22 C22           12.7579    -4.8396     2.7388 C.ar    
  23 C23           11.5836    -4.1258     2.6014 C.ar    
  24 N24           14.9269    -5.1246     3.7610 N.am    
  25 S25           16.0865    -5.0561     2.5807 S.o2    
  26 O26           17.1232    -5.9023     3.0585 O.2     
  27 O27           15.3856    -5.3608     1.3828 O.2     
  28 C28           16.6283    -3.3248     2.5784 C.3     
  29 H29           -1.3469     1.8239     1.9980 H       
  30 H30            0.5089     2.2439     3.5589 H       
  31 H31           -1.1764     0.0198     0.3328 H       
  32 H32            0.8479    -1.3759     0.2300 H       
  33 H33            2.5377     0.8541     3.4647 H       
  34 H34            4.2734     0.2963     2.5974 H       
  35 H35            3.4871    -0.7678     3.7886 H       
  36 H36            5.8947    -1.3375     3.4949 H       
  37 H37            4.8362    -2.6781     2.9929 H       
  38 H38            5.2392    -2.0039    -0.5845 H       
  39 H39            4.4528    -3.0680     0.6068 H       
  40 H40            2.8316    -1.4342    -0.2908 H       
  41 H41            3.8900    -0.0936     0.2112 H       
  42 H42            6.7297    -3.4679     1.7103 H       
  43 H43            7.3219    -2.5096     0.3321 H       
  44 H44            7.6608    -1.7351     3.2641 H       
  45 H45            8.9656    -3.7705     2.5809 H       
  46 H46            9.7067    -2.8149     1.2748 H       
  47 H47            8.7730    -0.5983     0.8351 H       
  48 H48           12.2131    -1.6202     4.7829 H       
  49 H49           14.3028    -2.8952     5.0368 H       
  50 H50           12.9115    -5.7422     2.1660 H       
  51 H51           10.8204    -4.4683     1.9183 H       
  52 H52           15.0713    -5.6674     4.5518 H       
  53 H53           17.1086    -3.0932     3.5290 H       
  54 H54           17.3369    -3.1670     1.7653 H       
  55 H55           15.7649    -2.6741     2.4394 H       
@<TRIPOS>BOND
   1    1    2 ar
   2    1    3 ar
   3    1   29 1
   4    2    6 ar
   5    2   30 1
   6    3    4 ar
   7    3   31 1
   8    4    5 ar
   9    4   32 1
  10    5    6 ar
  11    5    7 1
  12    6   33 1
  13    7    8 1
  14    7   12 1
  15    8    9 1
  16    8   34 1
  17    8   35 1
  18    9   10 1
  19    9   36 1
  20    9   37 1
  21   10   11 1
  22   10   13 1
  23   11   12 1
  24   11   38 1
  25   11   39 1
  26   12   40 1
  27   12   41 1
  28   13   14 1
  29   13   42 1
  30   13   43 1
  31   14   16 1
  32   14   15 1
  33   14   44 1
  34   15   17 1
  35   15   45 1
  36   15   46 1
  37   16   47 1
  38   17   18 1
  39   18   19 ar
  40   18   23 ar
  41   19   20 ar
  42   19   48 1
  43   20   21 ar
  44   20   49 1
  45   21   22 ar
  46   21   24 1
  47   22   23 ar
  48   22   50 1
  49   23   51 1
  50   24   25 am
  51   24   52 1
  52   25   26 2
  53   25   27 2
  54   25   28 1
  55   28   53 1
  56   28   54 1
  57   28   55 1

#	End of record

