#	Name: ASD05140005
#	Creating user name:	WinNT
#	Creation time:	15. 06. 2019 20:57

#	Modifying user name:	WinNT
#	Modification time:	15. 06. 2019 20:57

#	Program:	/corina/corina34_cracker 3.40 0067  02.08.2006

@<TRIPOS>MOLECULE
ASD05140005
  57   60    0    0    0
SMALL
NO_CHARGES


@<TRIPOS>ATOM
   1 C1            -0.0164     1.3604     0.0095 C.ar    
   2 C2             0.0021    -0.0041     0.0020 C.ar    
   3 C3             1.2056    -0.7025    -0.0132 C.ar    
   4 C4             2.3997    -0.0444    -0.0206 C.ar    
   5 C5             2.4175     1.3573    -0.0132 C.ar    
   6 C6             1.1907     2.0661     0.0018 C.ar    
   7 N7             3.5640     2.0510    -0.0195 N.ar    
   8 C8             3.5467     3.3706    -0.0119 C.ar    
   9 N9             2.4172     4.0761     0.0022 N.ar    
  10 C10            1.2330     3.4832     0.0094 C.ar    
  11 C11            4.8387     4.0981    -0.0188 C.ar    
  12 C12            6.0398     3.3909    -0.0330 C.ar    
  13 C13            7.2393     4.0733    -0.0398 C.ar    
  14 C14            7.2511     5.4565    -0.0326 C.ar    
  15 C15            6.0623     6.1637    -0.0180 C.ar    
  16 C16            4.8568     5.4920    -0.0168 C.ar    
  17 N17            0.0711     4.2251     0.0245 N.pl3   
  18 C18            0.1364     5.6886     0.0322 C.3     
  19 C19           -1.2818     6.2624     0.0488 C.3     
  20 C20           -1.9709     5.8811     1.3605 C.3     
  21 C21           -1.2168     7.7865    -0.0689 C.3     
  22 N22            8.5409     6.1828    -0.0400 N.pl3   
  23 C23           -0.5273     8.1694    -1.3814 C.3     
  24 C24           -0.5196     9.6932    -1.5222 C.3     
  25 N25           -1.8999    10.1942    -1.5093 N.3     
  26 C26           -2.5671     9.8796    -0.2396 C.3     
  27 C27           -2.6359     8.3614    -0.0604 C.3     
  28 C28           -1.9387    11.6374    -1.7810 C.3     
  29 O29            9.5890     5.5625    -0.0524 O.2     
  30 O30            8.5541     7.4007    -0.0336 O.2     
  31 H31           -0.9568     1.8914     0.0169 H       
  32 H32           -0.9301    -0.5494     0.0084 H       
  33 H33            1.1936    -1.7824    -0.0189 H       
  34 H34            3.3261    -0.5996    -0.0317 H       
  35 H35            6.0317     2.3109    -0.0383 H       
  36 H36            8.1705     3.5264    -0.0505 H       
  37 H37            6.0776     7.2436    -0.0116 H       
  38 H38            3.9292     6.0451    -0.0103 H       
  39 H39           -0.7898     3.7780     0.0301 H       
  40 H40            0.6743     6.0236     0.9191 H       
  41 H41            0.6576     6.0337    -0.8608 H       
  42 H42           -1.8476     5.8570    -0.7901 H       
  43 H43           -2.0173     4.7953     1.4444 H       
  44 H44           -1.4052     6.2865     2.1994 H       
  45 H45           -2.9813     6.2899     1.3723 H       
  46 H46           -0.6531     8.1929     0.7708 H       
  47 H47            0.4979     7.7993    -1.3753 H       
  48 H48           -1.0687     7.7292    -2.2188 H       
  49 H49            0.0338    10.1319    -0.6919 H       
  50 H50           -0.0421     9.9686    -2.4626 H       
  51 H51           -2.0041    10.3175     0.5848 H       
  52 H52           -3.5767    10.2905    -0.2483 H       
  53 H53           -3.2106     7.9242    -0.8770 H       
  54 H54           -3.1172     8.1284     0.8894 H       
  55 H55           -1.5045    11.8344    -2.7612 H       
  56 H56           -2.9726    11.9823    -1.7655 H       
  57 H57           -1.3678    12.1662    -1.0178 H       
@<TRIPOS>BOND
   1    1    2 ar
   2    1    6 ar
   3    1   31 1
   4    2    3 ar
   5    2   32 1
   6    3    4 ar
   7    3   33 1
   8    4    5 ar
   9    4   34 1
  10    5    7 ar
  11    5    6 ar
  12    6   10 ar
  13    7    8 ar
  14    8    9 ar
  15    8   11 1
  16    9   10 ar
  17   10   17 1
  18   11   12 ar
  19   11   16 ar
  20   12   13 ar
  21   12   35 1
  22   13   14 ar
  23   13   36 1
  24   14   15 ar
  25   14   22 1
  26   15   16 ar
  27   15   37 1
  28   16   38 1
  29   17   18 1
  30   17   39 1
  31   18   19 1
  32   18   40 1
  33   18   41 1
  34   19   20 1
  35   19   21 1
  36   19   42 1
  37   20   43 1
  38   20   44 1
  39   20   45 1
  40   21   23 1
  41   21   27 1
  42   21   46 1
  43   22   29 2
  44   22   30 2
  45   23   24 1
  46   23   47 1
  47   23   48 1
  48   24   25 1
  49   24   49 1
  50   24   50 1
  51   25   26 1
  52   25   28 1
  53   26   27 1
  54   26   51 1
  55   26   52 1
  56   27   53 1
  57   27   54 1
  58   28   55 1
  59   28   56 1
  60   28   57 1

#	End of record

