#	Name: ASD01885863
#	Creating user name:	WinNT
#	Creation time:	15. 06. 2019 19:50

#	Modifying user name:	WinNT
#	Modification time:	15. 06. 2019 19:50

#	Program:	/corina/corina34_cracker 3.40 0067  02.08.2006

@<TRIPOS>MOLECULE
ASD01885863
  31   33    0    0    0
SMALL
NO_CHARGES


@<TRIPOS>ATOM
   1 C1            -0.0171     1.4062     0.0098 C.ar    
   2 C2             1.2140     2.1099     0.0018 C.ar    
   3 C3             1.1966     3.5279     0.0097 C.ar    
   4 C4            -0.0377     4.1622     0.0249 C.ar    
   5 C5            -1.2077     3.3937     0.0319 C.ar    
   6 N6            -1.1698     2.0747     0.0299 N.ar    
   7 C7             0.0021    -0.0041     0.0020 C.ar    
   8 C8             1.1952    -0.6628    -0.0130 C.ar    
   9 C9             2.4002     0.0350    -0.0203 C.ar    
  10 C10            2.4199     1.3980    -0.0132 C.ar    
  11 C11            2.4557     4.3071     0.0024 C.ar    
  12 C12           -2.5223     4.0788     0.0486 C.2     
  13 N13           -3.6593     3.3552     0.0556 N.am    
  14 O14           -2.5746     5.2927     0.0561 O.2     
  15 F15           -1.1567    -0.6986     0.0098 F       
  16 C16            2.6341     5.3401    -0.9182 C.ar    
  17 C17            3.8084     6.0633    -0.9207 C.ar    
  18 C18            4.8106     5.7650    -0.0110 C.ar    
  19 C19            4.6382     4.7398     0.9056 C.ar    
  20 C20            3.4652     4.0145     0.9198 C.ar    
  21 F21            5.9595     6.4757    -0.0179 F       
  22 H22           -0.0951     5.2406     0.0317 H       
  23 H23            1.2061    -1.7428    -0.0189 H       
  24 H24            3.3319    -0.5111    -0.0315 H       
  25 H25            3.3616     1.9267    -0.0195 H       
  26 H26           -3.6175     2.3862     0.0496 H       
  27 H27           -4.5194     3.8035     0.0665 H       
  28 H28            1.8541     5.5728    -1.6280 H       
  29 H29            3.9475     6.8632    -1.6329 H       
  30 H30            5.4220     4.5112     1.6125 H       
  31 H31            3.3317     3.2158     1.6344 H       
@<TRIPOS>BOND
   1    1    7 ar
   2    1    2 ar
   3    1    6 ar
   4    2    3 ar
   5    2   10 ar
   6    3    4 ar
   7    3   11 1
   8    4    5 ar
   9    4   22 1
  10    5    6 ar
  11    5   12 1
  12    7    8 ar
  13    7   15 1
  14    8    9 ar
  15    8   23 1
  16    9   10 ar
  17    9   24 1
  18   10   25 1
  19   11   16 ar
  20   11   20 ar
  21   12   13 am
  22   12   14 2
  23   13   26 1
  24   13   27 1
  25   16   17 ar
  26   16   28 1
  27   17   18 ar
  28   17   29 1
  29   18   19 ar
  30   18   21 1
  31   19   20 ar
  32   19   30 1
  33   20   31 1

#	End of record

