#	Name: ASD07930558
#	Creating user name:	WinNT
#	Creation time:	15. 06. 2019 21:12

#	Modifying user name:	WinNT
#	Modification time:	15. 06. 2019 21:12

#	Program:	/corina/corina34_cracker 3.40 0067  02.08.2006

@<TRIPOS>MOLECULE
ASD07930558
  48   50    0    0    0
SMALL
NO_CHARGES


@<TRIPOS>ATOM
   1 C1            -0.0388     1.1019     0.0273 C.3     
   2 N2             0.7710     0.9828    -2.8434 N.2     
   3 N3            -0.3445     3.0305    -2.9970 N.pl3   
   4 C4            -1.7305     3.4050    -3.2970 C.3     
   5 C5            -2.5313     3.4711    -1.9892 C.3     
   6 S6            -2.3884     1.8619    -1.1501 S.o2    
   7 N7            -0.7450     1.5869    -1.1611 N.am    
   8 C8            -0.0782     1.8404    -2.3513 C.2     
   9 C9            -2.3527     2.3597    -4.2249 C.3     
  10 C10           -1.7530     4.7534    -3.9696 C.ar    
  11 C11           -0.5819     5.4708    -4.1165 C.ar    
  12 C12           -0.6018     6.7133    -4.7367 C.ar    
  13 C13           -1.7998     7.2328    -5.2084 C.ar    
  14 C14           -2.9708     6.5118    -5.0597 C.ar    
  15 C15           -2.9466     5.2692    -4.4447 C.ar    
  16 O16           -2.7220     1.9793     0.2262 O.2     
  17 O17           -2.9300     0.8236    -1.9550 O.2     
  18 F18           -4.0908     4.5656    -4.2998 F       
  19 N19            0.5841     7.4410    -4.8856 N.am    
  20 C20            0.7749     8.2017    -5.9817 C.2     
  21 O21           -0.0380     8.1805    -6.8853 O.2     
  22 C22            1.9731     9.0621    -6.0851 C.ar    
  23 N23            2.8641     9.0857    -5.0954 N.ar    
  24 N24            3.2447    10.6124    -7.3126 N.ar    
  25 C25            2.1740     9.8450    -7.2215 C.ar    
  26 C26            3.9301     9.8511    -5.1885 C.ar    
  27 C27            4.1281    10.6386    -6.3238 C.ar    
  28 O28            5.2266    11.4260    -6.4183 O.3     
  29 C29            5.3658    12.2055    -7.6079 C.3     
  30 F30           -4.1374     7.0162    -5.5178 F       
  31 H31           -0.0279     0.0119     0.0239 H       
  32 H32            0.9851     1.4755     0.0193 H       
  33 H33           -0.5482     1.4573     0.9230 H       
  34 H34            0.9459     0.1508    -2.3762 H       
  35 H35            0.3839     3.6165    -3.2555 H       
  36 H36           -2.1269     4.2560    -1.3500 H       
  37 H37           -3.5783     3.6790    -2.2095 H       
  38 H38           -2.3376     1.3854    -3.7364 H       
  39 H39           -3.3827     2.6386    -4.4474 H       
  40 H40           -1.7813     2.3104    -5.1517 H       
  41 H41            0.3493     5.0656    -3.7488 H       
  42 H42           -1.8175     8.1990    -5.6907 H       
  43 H43            1.2688     7.3980    -4.1999 H       
  44 H44            1.4546     9.8234    -8.0267 H       
  45 H45            4.6523     9.8704    -4.3857 H       
  46 H46            6.2853    12.7883    -7.5549 H       
  47 H47            5.4042    11.5440    -8.4733 H       
  48 H48            4.5138    12.8788    -7.7028 H       
@<TRIPOS>BOND
   1    1   31 1
   2    1   32 1
   3    1   33 1
   4    1    7 1
   5    2    8 2
   6    2   34 1
   7    3    4 1
   8    3    8 1
   9    3   35 1
  10    4    5 1
  11    4    9 1
  12    4   10 1
  13    5    6 1
  14    5   36 1
  15    5   37 1
  16    6    7 am
  17    6   16 2
  18    6   17 2
  19    7    8 1
  20    9   38 1
  21    9   39 1
  22    9   40 1
  23   10   11 ar
  24   10   15 ar
  25   11   12 ar
  26   11   41 1
  27   12   13 ar
  28   12   19 1
  29   13   14 ar
  30   13   42 1
  31   14   15 ar
  32   14   30 1
  33   15   18 1
  34   19   20 am
  35   19   43 1
  36   20   21 2
  37   20   22 1
  38   22   23 ar
  39   22   25 ar
  40   23   26 ar
  41   24   25 ar
  42   24   27 ar
  43   25   44 1
  44   26   27 ar
  45   26   45 1
  46   27   28 1
  47   28   29 1
  48   29   46 1
  49   29   47 1
  50   29   48 1

#	End of record

