#	Name: ASD06590084
#	Creating user name:	WinNT
#	Creation time:	15. 06. 2019 21:06

#	Modifying user name:	WinNT
#	Modification time:	15. 06. 2019 21:06

#	Program:	/corina/corina34_cracker 3.40 0067  02.08.2006

@<TRIPOS>MOLECULE
ASD06590084
 303  303    0    0    0
SMALL
NO_CHARGES


@<TRIPOS>ATOM
   1 C1            -9.4881     4.5985     6.7795 C.2     
   2 O2            -9.3219     5.2118     5.7465 O.2     
   3 N3            -7.8821     6.1515     7.7271 N.am    
   4 C4            -8.7395     5.0012     8.0238 C.3     
   5 C5            -9.7380     5.3787     9.1200 C.3     
   6 C6            -8.9804     5.9058    10.3403 C.3     
   7 O7           -10.6199     6.3919     8.6326 O.3     
   8 C8           -12.4459     4.0247     5.6906 C.2     
   9 O9           -12.6617     4.7765     6.6174 O.2     
  10 N10          -10.3466     3.5601     6.8159 N.am    
  11 C11          -11.1600     3.2405     5.6401 C.3     
  12 C12          -11.4756     1.7435     5.6300 C.3     
  13 C13          -10.1993     0.9622     5.4521 C.2     
  14 O14           -9.1331     1.5397     5.4287 O.2     
  15 N15          -10.2427    -0.3783     5.3190 N.am    
  16 C16          -15.6659     3.9314     3.9626 C.2     
  17 O17          -15.4029     2.8836     3.4114 O.2     
  18 N18          -13.3561     3.8906     4.7057 N.am    
  19 C19          -14.6061     4.6529     4.7547 C.3     
  20 C20          -14.3798     6.0427     4.1562 C.3     
  21 C21          -19.2221     4.5334     3.1472 C.2     
  22 O22          -19.2730     5.5755     3.7655 O.2     
  23 N23          -16.9060     4.4506     3.8668 N.am    
  24 C24          -17.9362     3.7492     3.0968 C.3     
  25 C25          -22.7303     3.9089     2.3312 C.2     
  26 O26          -22.5353     2.7258     2.1492 O.2     
  27 N27          -20.3156     4.0766     2.5053 N.am    
  28 C28          -21.5656     4.8389     2.5543 C.3     
  29 C29          -21.5525     5.9107     1.4625 C.3     
  30 C30          -20.4472     6.9264     1.7582 C.3     
  31 C31          -20.4341     7.9983     0.6665 C.3     
  32 N32          -19.3757     8.9708     0.9496 N.pl3   
  33 C33          -19.1723    10.0324     0.1000 C.2     
  34 N34          -18.2307    10.8976     0.3519 N.2     
  35 N35          -19.9622    10.1812    -1.0154 N.pl3   
  36 C36          -26.2866     4.2664     1.5644 C.2     
  37 O37          -26.1821     5.4590     1.3707 O.2     
  38 N38          -23.9885     4.3919     2.3340 N.am    
  39 C39          -25.1207     3.4878     2.1172 C.3     
  40 C40          -25.5213     2.8443     3.4462 C.3     
  41 O41          -26.0069     3.8516     4.3359 O.3     
  42 C42          -29.3994     5.0138     1.7051 C.2     
  43 O43          -29.1227     4.8742     2.8776 O.2     
  44 N44          -27.4454     3.6373     1.2854 N.am    
  45 C45          -28.5413     4.3702     0.6465 C.3     
  46 C46          -29.3904     3.4009    -0.1784 C.3     
  47 C47          -28.5637     2.8471    -1.3102 C.2     
  48 O48          -27.3917     3.1279    -1.3960 O.2     
  49 O49          -29.1295     2.0420    -2.2231 O.3     
  50 C50          -32.6993     6.5810     1.8373 C.2     
  51 O51          -32.9254     6.4037     0.6590 O.2     
  52 N52          -30.4742     5.7447     1.3487 N.am    
  53 C53          -31.3084     6.3705     2.3777 C.3     
  54 C54          -30.7049     7.7199     2.7724 C.3     
  55 C55          -29.2939     7.5058     3.3240 C.3     
  56 O56          -30.6438     8.5685     1.6243 O.3     
  57 C57          -35.8355     8.0516     3.0056 C.2     
  58 O58          -35.2924     8.6092     3.9357 O.2     
  59 N59          -33.6920     6.9664     2.6634 N.am    
  60 C60          -35.0642     7.0704     2.1610 C.3     
  61 C61          -35.7379     5.6984     2.2298 C.3     
  62 C62          -35.0297     4.7340     1.2762 C.3     
  63 C63          -35.7033     3.3620     1.3451 C.3     
  64 N64          -35.0251     2.4387     0.4320 N.pl3   
  65 C65          -35.4578     1.1383     0.3228 C.2     
  66 N66          -34.8545     0.3167    -0.4896 N.2     
  67 N67          -36.5269     0.7044     1.0704 N.pl3   
  68 C68          -39.3494     8.9449     3.4718 C.2     
  69 O69          -39.7337     8.0128     2.7976 O.2     
  70 N70          -37.1287     8.3095     2.7274 N.am    
  71 C71          -37.8785     9.2634     3.5485 C.3     
  72 C72          -37.6363    10.6827     3.0308 C.3     
  73 C73          -36.1642    11.0518     3.2240 C.3     
  74 C74          -35.9257    12.4497     2.7140 C.2     
  75 O75          -36.8428    13.0879     2.2425 O.2     
  76 N76          -34.6931    12.9907     2.7820 N.am    
  77 C77          -42.4671    10.6304     4.3671 C.2     
  78 O78          -41.8983    11.6733     4.6117 O.2     
  79 N79          -40.2380     9.6958     4.1523 N.am    
  80 C80          -41.6679     9.3861     4.0777 C.3     
  81 C81          -42.0108     8.3085     5.1083 C.3     
  82 C82          -41.2951     7.0067     4.7424 C.3     
  83 C83          -41.6328     5.9453     5.7575 C.2     
  84 O84          -42.3731     6.2046     6.6826 O.2     
  85 N85          -41.1122     4.7079     5.6374 N.am    
  86 C86          -45.9501    11.4077     5.1598 C.2     
  87 O87          -46.2410    10.2371     5.2860 O.2     
  88 N88          -43.8141    10.5844     4.3543 N.am    
  89 C89          -44.5910    11.7941     4.6356 C.3     
  90 C90          -44.7527    12.6070     3.3496 C.3     
  91 C91          -43.4031    13.0974     2.8922 C.ar    
  92 C92          -42.6424    12.3247     2.0344 C.ar    
  93 C93          -41.4047    12.7717     1.6141 C.ar    
  94 C94          -40.9254    13.9974     2.0531 C.ar    
  95 O95          -39.7084    14.4396     1.6407 O.3     
  96 C96          -41.6909    14.7711     2.9134 C.ar    
  97 C97          -42.9302    14.3219     3.3267 C.ar    
  98 C98          -49.1444    13.0958     5.7159 C.2     
  99 O99          -48.7763    14.1007     5.1452 O.2     
 100 N100         -46.8422    12.3630     5.4885 N.am    
 101 C101         -48.1633    11.9873     5.9980 C.3     
 102 C102         -48.0798    11.7522     7.5076 C.3     
 103 C103         -52.5146    13.9843     6.8183 C.2     
 104 O104         -52.5225    13.1234     7.6726 O.2     
 105 N105         -50.4309    12.9705     6.0976 N.am    
 106 C106         -51.3847    14.0481     5.8232 C.3     
 107 C107         -51.9422    13.8876     4.4075 C.3     
 108 C108         -50.8146    14.0766     3.3908 C.3     
 109 C109         -51.3721    13.9161     1.9751 C.3     
 110 C110         -50.2444    14.1051     0.9585 C.3     
 111 N111         -50.7797    13.9510    -0.4008 N.3     
 112 C112         -55.8412    15.4186     7.2050 C.2     
 113 O113         -55.8281    16.0036     6.1427 O.2     
 114 N114         -53.5165    14.8839     6.7590 N.am    
 115 C115         -54.5567    14.8908     7.7905 C.3     
 116 C116         -54.1188    15.7872     8.9505 C.3     
 117 C117         -55.1222    15.6622    10.0987 C.3     
 118 C118         -55.0375    14.2576    10.6993 C.3     
 119 C119         -54.7959    16.6982    11.1762 C.3     
 120 C120         -58.4962    17.1256     7.5297 C.2     
 121 O121         -57.6905    17.7502     8.1782 O.2     
 122 N122         -57.0044    15.2405     7.8619 N.am    
 123 C123         -58.2651    15.6634     7.2471 C.3     
 124 C124         -59.4174    14.8430     7.8301 C.3     
 125 C125         -59.2479    13.3742     7.4366 C.3     
 126 C126         -60.3284    12.5348     8.1213 C.3     
 127 C127         -59.3791    13.2345     5.9187 C.3     
 128 O128         -59.5970    17.7339     7.0610 O.3     
 129 C129          -6.7817     6.3813     8.4706 C.2     
 130 O130          -6.5013     5.6359     9.3853 O.2     
 131 C131           8.5654    16.1875    12.8859 C.3     
 132 C132           7.6699    14.9862    13.1957 C.3     
 133 C133           6.4989    14.9556    12.2115 C.3     
 134 C134           5.6035    13.7544    12.5214 C.3     
 135 C135           4.4325    13.7238    11.5371 C.3     
 136 C136           3.5370    12.5225    11.8470 C.3     
 137 C137           2.3660    12.4919    10.8628 C.3     
 138 C138           1.4706    11.2907    11.1727 C.3     
 139 C139           0.2996    11.2601    10.1884 C.3     
 140 C140          -0.5959    10.0588    10.4983 C.3     
 141 C141          -1.7669    10.0282     9.5141 C.3     
 142 C142          -2.6623     8.8270     9.8240 C.3     
 143 C143          -3.8333     8.7964     8.8397 C.3     
 144 C144          -4.7287     7.5951     9.1496 C.3     
 145 C145          -5.8997     7.5645     8.1654 C.3     
 146 H146          -8.1064     6.7477     6.9956 H       
 147 H147          -8.1247     4.1678     8.3637 H       
 148 H148         -10.3162     4.4992     9.4033 H       
 149 H149          -8.3077     5.1330    10.7121 H       
 150 H150          -8.4022     6.7853    10.0570 H       
 151 H151          -9.6917     6.1747    11.1213 H       
 152 H152         -11.2814     6.6805     9.2763 H       
 153 H153         -10.4260     3.0244     7.6207 H       
 154 H154         -10.6101     3.5021     4.7360 H       
 155 H155         -11.9439     1.4645     6.5739 H       
 156 H156         -12.1554     1.5211     4.8075 H       
 157 H157         -11.0955    -0.8402     5.3378 H       
 158 H158          -9.4212    -0.8812     5.2045 H       
 159 H159         -13.1834     3.2893     3.9644 H       
 160 H160         -14.9310     4.7518     5.7905 H       
 161 H161         -14.0549     5.9437     3.1205 H       
 162 H162         -15.3098     6.6099     4.1927 H       
 163 H163         -13.6132     6.5645     4.7292 H       
 164 H164         -17.1163     5.2886     4.3076 H       
 165 H165         -18.0975     2.7591     3.5231 H       
 166 H166         -17.6113     3.6502     2.0610 H       
 167 H167         -20.2749     3.2431     2.0108 H       
 168 H168         -21.6627     5.3152     3.5299 H       
 169 H169         -21.3666     5.4425     0.4959 H       
 170 H170         -22.5166     6.4189     1.4407 H       
 171 H171         -20.6331     7.3946     2.7248 H       
 172 H172         -19.4831     6.4182     1.7801 H       
 173 H173         -20.2482     7.5300    -0.3001 H       
 174 H174         -21.3981     8.5064     0.6446 H       
 175 H175         -18.8183     8.8658     1.7365 H       
 176 H176         -18.0872    11.6466    -0.2476 H       
 177 H177         -20.6630     9.5373    -1.2028 H       
 178 H178         -19.8188    10.9302    -1.6148 H       
 179 H179         -24.1444     5.3381     2.4796 H       
 180 H180         -24.8343     2.7104     1.4088 H       
 181 H181         -26.3039     2.1061     3.2711 H       
 182 H182         -24.6536     2.3557     3.8894 H       
 183 H183         -26.2797     3.5146     5.2002 H       
 184 H184         -27.5538     2.6993     1.5075 H       
 185 H185         -28.1312     5.1404    -0.0067 H       
 186 H186         -29.7296     2.5833     0.4576 H       
 187 H187         -30.2539     3.9285    -0.5834 H       
 188 H188         -28.5591     1.7114    -2.9306 H       
 189 H189         -30.6955     5.8564     0.4109 H       
 190 H190         -31.3529     5.7224     3.2530 H       
 191 H191         -31.3267     8.1865     3.5364 H       
 192 H192         -28.6789     7.0166     2.5687 H       
 193 H193         -28.8546     8.4694     3.5821 H       
 194 H194         -29.3431     6.8788     4.2143 H       
 195 H195         -31.5044     8.7477     1.2214 H       
 196 H196         -33.4980     7.1749     3.5906 H       
 197 H197         -35.0475     7.4154     1.1272 H       
 198 H198         -35.6758     5.3138     3.2478 H       
 199 H199         -36.7845     5.7925     1.9403 H       
 200 H200         -35.0918     5.1186     0.2582 H       
 201 H201         -33.9831     4.6399     1.5658 H       
 202 H202         -35.6412     2.9774     2.3631 H       
 203 H203         -36.7499     3.4562     1.0555 H       
 204 H204         -34.2709     2.7447    -0.0955 H       
 205 H205         -35.1597    -0.6008    -0.5667 H       
 206 H206         -36.9759     1.3158     1.6750 H       
 207 H207         -36.8322    -0.2131     0.9934 H       
 208 H208         -37.5631     7.8636     1.9835 H       
 209 H209         -37.5449     9.1925     4.5838 H       
 210 H210         -37.8868    10.7305     1.9710 H       
 211 H211         -38.2621    11.3830     3.5840 H       
 212 H212         -35.9137    11.0040     4.2837 H       
 213 H213         -35.5384    10.3515     2.6708 H       
 214 H214         -33.9595    12.4802     3.1592 H       
 215 H215         -34.5396    13.8904     2.4538 H       
 216 H216         -39.9306    10.4412     4.6915 H       
 217 H217         -41.9094     9.0233     3.0786 H       
 218 H218         -41.6879     8.6352     6.0968 H       
 219 H219         -43.0879     8.1415     5.1148 H       
 220 H220         -41.6180     6.6799     3.7540 H       
 221 H221         -40.2180     7.1736     4.7360 H       
 222 H222         -40.5202     4.5006     4.8976 H       
 223 H223         -41.3296     4.0248     6.2908 H       
 224 H224         -44.2690     9.7504     4.1587 H       
 225 H225         -44.0710    12.3946     5.3820 H       
 226 H226         -45.1924    11.9784     2.5752 H       
 227 H227         -45.4044    13.4601     3.5385 H       
 228 H228         -43.0159    11.3706     1.6930 H       
 229 H229         -40.8105    12.1674     0.9447 H       
 230 H230         -39.7349    14.9638     0.8285 H       
 231 H231         -41.3199    15.7255     3.2568 H       
 232 H232         -43.5284    14.9258     3.9929 H       
 233 H233         -46.6095    13.2992     5.3876 H       
 234 H234         -48.4962    11.0734     5.5059 H       
 235 H235         -49.0627    11.4727     7.8867 H       
 236 H236         -47.3701    10.9504     7.7117 H       
 237 H237         -47.7469    12.6660     7.9997 H       
 238 H238         -50.7253    12.1668     6.5539 H       
 239 H239         -50.8799    15.0104     5.9080 H       
 240 H240         -52.3688    12.8908     4.2958 H       
 241 H241         -52.7162    14.6355     4.2348 H       
 242 H242         -50.3880    15.0734     3.5025 H       
 243 H243         -50.0406    13.3287     3.5635 H       
 244 H244         -51.7987    12.9193     1.8635 H       
 245 H245         -52.1460    14.6639     1.8025 H       
 246 H246         -49.8178    15.1019     1.0701 H       
 247 H247         -49.4705    13.3572     1.1311 H       
 248 H248         -51.5430    14.5905    -0.5635 H       
 249 H249         -50.0537    14.0714    -1.0912 H       
 250 H250         -53.5487    15.5267     6.0333 H       
 251 H251         -54.7137    13.8757     8.1550 H       
 252 H252         -53.1318    15.4789     9.2953 H       
 253 H253         -54.0789    16.8233     8.6140 H       
 254 H254         -56.1299    15.8357     9.7211 H       
 255 H255         -54.0513    14.1094    11.1392 H       
 256 H256         -55.7998    14.1455    11.4703 H       
 257 H257         -55.2011    13.5171     9.9163 H       
 258 H258         -54.8563    17.6989    10.7483 H       
 259 H259         -55.5108    16.6091    11.9942 H       
 260 H260         -53.7882    16.5247    11.5538 H       
 261 H261         -57.0070    14.8322     8.7418 H       
 262 H262         -58.2150    15.5051     6.1698 H       
 263 H263         -59.4127    14.9309     8.9166 H       
 264 H264         -60.3638    15.2169     7.4394 H       
 265 H265         -58.2639    13.0254     7.7499 H       
 266 H266         -61.3124    12.8837     7.8080 H       
 267 H267         -60.2077    11.4884     7.8409 H       
 268 H268         -60.2350    12.6344     9.2027 H       
 269 H269         -58.6093    13.8325     5.4309 H       
 270 H270         -59.2583    12.1881     5.6383 H       
 271 H271         -60.3630    13.5833     5.6054 H       
 272 H272         -59.7016    18.6727     7.2680 H       
 273 H273           9.3996    16.2093    13.5870 H       
 274 H274           8.9478    16.1028    11.8687 H       
 275 H275           7.9866    17.1062    12.9811 H       
 276 H276           8.2487    14.0675    13.1005 H       
 277 H277           7.2875    15.0709    14.2129 H       
 278 H278           5.9202    15.8744    12.3067 H       
 279 H279           6.8813    14.8709    11.1943 H       
 280 H280           6.1822    12.8356    12.4262 H       
 281 H281           5.2210    13.8391    13.5386 H       
 282 H282           3.8537    14.6425    11.6324 H       
 283 H283           4.8149    13.6391    10.5200 H       
 284 H284           4.1158    11.6038    11.7518 H       
 285 H285           3.1546    12.6072    12.8642 H       
 286 H286           1.7873    13.4107    10.9580 H       
 287 H287           2.7485    12.4072     9.8456 H       
 288 H288           2.0493    10.3719    11.0775 H       
 289 H289           1.0881    11.3754    12.1899 H       
 290 H290          -0.2792    12.1788    10.2837 H       
 291 H291           0.6820    11.1754     9.1713 H       
 292 H292          -0.0171     9.1401    10.4031 H       
 293 H293          -0.9783    10.1435    11.5155 H       
 294 H294          -2.3456    10.9470     9.6093 H       
 295 H295          -1.3844     9.9435     8.4969 H       
 296 H296          -2.0835     7.9082     9.7287 H       
 297 H297          -3.0447     8.9117    10.8412 H       
 298 H298          -4.4121     9.7151     8.9350 H       
 299 H299          -3.4509     8.7117     7.8226 H       
 300 H300          -4.1500     6.6764     9.0544 H       
 301 H301          -5.1112     7.6798    10.1668 H       
 302 H302          -5.5173     7.4798     7.1482 H       
 303 H303          -6.4785     8.4833     8.2606 H       
@<TRIPOS>BOND
   1    1    2 2
   2    1    4 1
   3    1   10 am
   4    3  129 am
   5    3    4 1
   6    3  146 1
   7    4    5 1
   8    4  147 1
   9    5    6 1
  10    5    7 1
  11    5  148 1
  12    6  149 1
  13    6  150 1
  14    6  151 1
  15    7  152 1
  16    8    9 2
  17    8   11 1
  18    8   18 am
  19   10   11 1
  20   10  153 1
  21   11   12 1
  22   11  154 1
  23   12   13 1
  24   12  155 1
  25   12  156 1
  26   13   14 2
  27   13   15 am
  28   15  157 1
  29   15  158 1
  30   16   17 2
  31   16   19 1
  32   16   23 am
  33   18   19 1
  34   18  159 1
  35   19   20 1
  36   19  160 1
  37   20  161 1
  38   20  162 1
  39   20  163 1
  40   21   22 2
  41   21   24 1
  42   21   27 am
  43   23   24 1
  44   23  164 1
  45   24  165 1
  46   24  166 1
  47   25   26 2
  48   25   28 1
  49   25   38 am
  50   27   28 1
  51   27  167 1
  52   28   29 1
  53   28  168 1
  54   29   30 1
  55   29  169 1
  56   29  170 1
  57   30   31 1
  58   30  171 1
  59   30  172 1
  60   31   32 1
  61   31  173 1
  62   31  174 1
  63   32   33 1
  64   32  175 1
  65   33   34 2
  66   33   35 1
  67   34  176 1
  68   35  177 1
  69   35  178 1
  70   36   37 2
  71   36   39 1
  72   36   44 am
  73   38   39 1
  74   38  179 1
  75   39   40 1
  76   39  180 1
  77   40   41 1
  78   40  181 1
  79   40  182 1
  80   41  183 1
  81   42   43 2
  82   42   45 1
  83   42   52 am
  84   44   45 1
  85   44  184 1
  86   45   46 1
  87   45  185 1
  88   46   47 1
  89   46  186 1
  90   46  187 1
  91   47   48 2
  92   47   49 1
  93   49  188 1
  94   50   51 2
  95   50   53 1
  96   50   59 am
  97   52   53 1
  98   52  189 1
  99   53   54 1
 100   53  190 1
 101   54   55 1
 102   54   56 1
 103   54  191 1
 104   55  192 1
 105   55  193 1
 106   55  194 1
 107   56  195 1
 108   57   58 2
 109   57   60 1
 110   57   70 am
 111   59   60 1
 112   59  196 1
 113   60   61 1
 114   60  197 1
 115   61   62 1
 116   61  198 1
 117   61  199 1
 118   62   63 1
 119   62  200 1
 120   62  201 1
 121   63   64 1
 122   63  202 1
 123   63  203 1
 124   64   65 1
 125   64  204 1
 126   65   66 2
 127   65   67 1
 128   66  205 1
 129   67  206 1
 130   67  207 1
 131   68   69 2
 132   68   71 1
 133   68   79 am
 134   70   71 1
 135   70  208 1
 136   71   72 1
 137   71  209 1
 138   72   73 1
 139   72  210 1
 140   72  211 1
 141   73   74 1
 142   73  212 1
 143   73  213 1
 144   74   75 2
 145   74   76 am
 146   76  214 1
 147   76  215 1
 148   77   78 2
 149   77   80 1
 150   77   88 am
 151   79   80 1
 152   79  216 1
 153   80   81 1
 154   80  217 1
 155   81   82 1
 156   81  218 1
 157   81  219 1
 158   82   83 1
 159   82  220 1
 160   82  221 1
 161   83   84 2
 162   83   85 am
 163   85  222 1
 164   85  223 1
 165   86   87 2
 166   86   89 1
 167   86  100 am
 168   88   89 1
 169   88  224 1
 170   89   90 1
 171   89  225 1
 172   90   91 1
 173   90  226 1
 174   90  227 1
 175   91   92 ar
 176   91   97 ar
 177   92   93 ar
 178   92  228 1
 179   93   94 ar
 180   93  229 1
 181   94   95 1
 182   94   96 ar
 183   95  230 1
 184   96   97 ar
 185   96  231 1
 186   97  232 1
 187   98   99 2
 188   98  101 1
 189   98  105 am
 190  100  101 1
 191  100  233 1
 192  101  102 1
 193  101  234 1
 194  102  235 1
 195  102  236 1
 196  102  237 1
 197  103  104 2
 198  103  106 1
 199  103  114 am
 200  105  106 1
 201  105  238 1
 202  106  107 1
 203  106  239 1
 204  107  108 1
 205  107  240 1
 206  107  241 1
 207  108  109 1
 208  108  242 1
 209  108  243 1
 210  109  110 1
 211  109  244 1
 212  109  245 1
 213  110  111 1
 214  110  246 1
 215  110  247 1
 216  111  248 1
 217  111  249 1
 218  112  113 2
 219  112  115 1
 220  112  122 am
 221  114  115 1
 222  114  250 1
 223  115  116 1
 224  115  251 1
 225  116  117 1
 226  116  252 1
 227  116  253 1
 228  117  118 1
 229  117  119 1
 230  117  254 1
 231  118  255 1
 232  118  256 1
 233  118  257 1
 234  119  258 1
 235  119  259 1
 236  119  260 1
 237  120  121 2
 238  120  123 1
 239  120  128 1
 240  122  123 1
 241  122  261 1
 242  123  124 1
 243  123  262 1
 244  124  125 1
 245  124  263 1
 246  124  264 1
 247  125  126 1
 248  125  127 1
 249  125  265 1
 250  126  266 1
 251  126  267 1
 252  126  268 1
 253  127  269 1
 254  127  270 1
 255  127  271 1
 256  128  272 1
 257  129  130 2
 258  129  145 1
 259  131  132 1
 260  131  273 1
 261  131  274 1
 262  131  275 1
 263  132  133 1
 264  132  276 1
 265  132  277 1
 266  133  134 1
 267  133  278 1
 268  133  279 1
 269  134  135 1
 270  134  280 1
 271  134  281 1
 272  135  136 1
 273  135  282 1
 274  135  283 1
 275  136  137 1
 276  136  284 1
 277  136  285 1
 278  137  138 1
 279  137  286 1
 280  137  287 1
 281  138  139 1
 282  138  288 1
 283  138  289 1
 284  139  140 1
 285  139  290 1
 286  139  291 1
 287  140  141 1
 288  140  292 1
 289  140  293 1
 290  141  142 1
 291  141  294 1
 292  141  295 1
 293  142  143 1
 294  142  296 1
 295  142  297 1
 296  143  144 1
 297  143  298 1
 298  143  299 1
 299  144  145 1
 300  144  300 1
 301  144  301 1
 302  145  302 1
 303  145  303 1

#	End of record

