#	Name: ASD02500828
#	Creating user name:	WinNT
#	Creation time:	15. 06. 2019 20:23

#	Modifying user name:	WinNT
#	Modification time:	15. 06. 2019 20:23

#	Program:	/corina/corina34_cracker 3.40 0067  02.08.2006

@<TRIPOS>MOLECULE
ASD02500828
  36   38    0    0    0
SMALL
NO_CHARGES


@<TRIPOS>ATOM
   1 O1            -0.0163     1.3499     0.0095 O.3     
   2 C2             0.0021    -0.0041     0.0020 C.2     
   3 C3             1.0804    -0.6484     0.7908 C.2     
   4 C4             2.2418     0.1050     1.0486 C.2     
   5 C5             2.3310     1.4789     0.5277 C.ar    
   6 C6             1.1487     2.0384     0.0020 C.ar    
   7 C7             3.5152     2.2059     0.5404 C.ar    
   8 C8             3.5330     3.4854     0.0238 C.ar    
   9 C9             2.3764     4.0370    -0.5042 C.ar    
  10 C10            1.1951     3.3254    -0.5181 C.ar    
  11 O11           -0.8193    -0.6550    -0.6161 O.2     
  12 C12            4.8112     4.2837     0.0342 C.3     
  13 C13            1.1297    -1.9157     1.3328 C.2     
  14 C14            2.2710    -2.1872     2.0017 C.2     
  15 S15            3.3469    -0.7974     1.9587 S.3     
  16 C16            2.5699    -3.4591     2.6691 C.2     
  17 O17            1.7579    -4.3651     2.6438 O.2     
  18 N18            3.7439    -3.6242     3.3102 N.am    
  19 C19            4.0423    -4.8942     3.9766 C.3     
  20 C20            4.6264    -5.8782     2.9610 C.3     
  21 C21            5.0563    -4.6562     5.0974 C.3     
  22 H22            4.4149     1.7729     0.9520 H       
  23 H23            2.4007     5.0372    -0.9110 H       
  24 H24            0.3032     3.7705    -0.9337 H       
  25 H25            5.3622     4.0994    -0.8881 H       
  26 H26            4.5759     5.3453     0.1109 H       
  27 H27            5.4199     3.9839     0.8872 H       
  28 H28            0.3252    -2.6290     1.2312 H       
  29 H29            4.3912    -2.9020     3.3304 H       
  30 H30            3.1259    -5.3078     4.3976 H       
  31 H31            5.5429    -5.4646     2.5400 H       
  32 H32            4.8485    -6.8232     3.4568 H       
  33 H33            3.9040    -6.0478     2.1625 H       
  34 H34            4.6402    -3.9552     5.8209 H       
  35 H35            5.2784    -5.6011     5.5932 H       
  36 H36            5.9728    -4.2426     4.6764 H       
@<TRIPOS>BOND
   1    1    2 1
   2    1    6 1
   3    2    3 1
   4    2   11 2
   5    3    4 2
   6    3   13 1
   7    4    5 1
   8    4   15 1
   9    5    6 ar
  10    5    7 ar
  11    6   10 ar
  12    7    8 ar
  13    7   22 1
  14    8    9 ar
  15    8   12 1
  16    9   10 ar
  17    9   23 1
  18   10   24 1
  19   12   25 1
  20   12   26 1
  21   12   27 1
  22   13   14 2
  23   13   28 1
  24   14   15 1
  25   14   16 1
  26   16   17 2
  27   16   18 am
  28   18   19 1
  29   18   29 1
  30   19   20 1
  31   19   21 1
  32   19   30 1
  33   20   31 1
  34   20   32 1
  35   20   33 1
  36   21   34 1
  37   21   35 1
  38   21   36 1

#	End of record

