#	Name: ASD02198171
#	Creating user name:	WinNT
#	Creation time:	15. 06. 2019 20:18

#	Modifying user name:	WinNT
#	Modification time:	15. 06. 2019 20:18

#	Program:	/corina/corina34_cracker 3.40 0067  02.08.2006

@<TRIPOS>MOLECULE
ASD02198171
  40   42    0    0    0
SMALL
NO_CHARGES


@<TRIPOS>ATOM
   1 C1             0.5518     1.3825    -0.6366 C.2     
   2 C2             0.4619     0.0089    -0.5479 C.2     
   3 C3            -0.7726    -0.6792    -0.3174 C.1     
   4 S4             2.1617     1.8699    -0.9149 S.3     
   5 C5             2.7340     0.2095    -0.9142 C.2     
   6 C6             1.6801    -0.6484    -0.7027 C.2     
   7 C7             4.0722    -0.1846    -1.1021 C.2     
   8 C8             5.0960     0.8212    -1.4638 C.ar    
   9 O9             4.3879    -1.3546    -0.9668 O.2     
  10 N10            1.8164    -2.0266    -0.6486 N.pl3   
  11 N11           -0.5148     2.2429    -0.5219 N.pl3   
  12 N12           -1.7519    -1.2251    -0.1345 N.1     
  13 C13            4.7411     1.9444    -2.2120 C.ar    
  14 C14           -0.2995     3.6261    -0.5029 C.ar    
  15 C15           -1.2139     4.4796    -1.1070 C.ar    
  16 C16            5.7001     2.8784    -2.5455 C.ar    
  17 C17            7.0113     2.7031    -2.1402 C.ar    
  18 C18            7.3697     1.5914    -1.3986 C.ar    
  19 C19            6.4190     0.6532    -1.0533 C.ar    
  20 C20           -1.0018     5.8434    -1.0885 C.ar    
  21 C21            0.1263     6.3625    -0.4651 C.ar    
  22 C22            1.0406     5.5087     0.1395 C.ar    
  23 C23            0.8256     4.1452     0.1249 C.ar    
  24 S24            0.3976     8.1034    -0.4418 S.3     
  25 C25            1.9603     8.2607     0.4658 C.3     
  26 H26            2.6900    -2.4325    -0.7629 H       
  27 H27            1.0382    -2.5853    -0.4966 H       
  28 H28           -1.4164     1.8915    -0.4540 H       
  29 H29            3.7181     2.0820    -2.5296 H       
  30 H30           -2.0907     4.0760    -1.5916 H       
  31 H31            5.4267     3.7482    -3.1245 H       
  32 H32            7.7584     3.4370    -2.4042 H       
  33 H33            8.3950     1.4601    -1.0856 H       
  34 H34            6.6999    -0.2140    -0.4741 H       
  35 H35           -1.7124     6.5069    -1.5588 H       
  36 H36            1.9175     5.9119     0.6241 H       
  37 H37            1.5361     3.4815     0.5952 H       
  38 H38            2.7448     7.7215    -0.0652 H       
  39 H39            2.2314     9.3136     0.5429 H       
  40 H40            1.8439     7.8414     1.4652 H       
@<TRIPOS>BOND
   1    1    2 2
   2    1    4 1
   3    1   11 1
   4    2    3 1
   5    2    6 1
   6    3   12 3
   7    4    5 1
   8    5    6 2
   9    5    7 1
  10    6   10 1
  11    7    8 1
  12    7    9 2
  13    8   13 ar
  14    8   19 ar
  15   10   26 1
  16   10   27 1
  17   11   14 1
  18   11   28 1
  19   13   16 ar
  20   13   29 1
  21   14   15 ar
  22   14   23 ar
  23   15   20 ar
  24   15   30 1
  25   16   17 ar
  26   16   31 1
  27   17   18 ar
  28   17   32 1
  29   18   19 ar
  30   18   33 1
  31   19   34 1
  32   20   21 ar
  33   20   35 1
  34   21   22 ar
  35   21   24 1
  36   22   23 ar
  37   22   36 1
  38   23   37 1
  39   24   25 1
  40   25   38 1
  41   25   39 1
  42   25   40 1

#	End of record

