#	Name: ASD01148752
#	Creating user name:	WinNT
#	Creation time:	15. 06. 2019 19:03

#	Modifying user name:	WinNT
#	Modification time:	15. 06. 2019 19:03

#	Program:	/corina/corina34_cracker 3.40 0067  02.08.2006

@<TRIPOS>MOLECULE
ASD01148752
  62   64    0    0    0
SMALL
NO_CHARGES


@<TRIPOS>ATOM
   1 N1            -0.0637     1.2676    -0.3544 N.pl3   
   2 C2             0.0323    -0.0708    -0.5477 C.2     
   3 C3             1.3522    -0.4344    -0.3870 C.2     
   4 C4             2.0752     0.7483    -0.0830 C.2     
   5 C5             1.1838     1.7719    -0.0700 C.2     
   6 C6             1.9072    -1.7935    -0.5078 C.2     
   7 O7             1.6524    -2.4696    -1.4862 O.2     
   8 N8             2.6973    -2.2878     0.4657 N.am    
   9 C9             3.3428    -3.5916     0.2939 C.3     
  10 C10            4.7346    -3.3959    -0.3109 C.3     
  11 O11            5.5599    -2.6844     0.6136 O.3     
  12 C12            6.8885    -2.4476     0.1438 C.3     
  13 C13            2.9106    -1.5213     1.6958 C.3     
  14 C14            1.8424    -1.8991     2.7239 C.3     
  15 O15            2.0053    -3.2685     3.0987 O.3     
  16 C16            1.0522    -3.7251     4.0606 C.3     
  17 C17           -1.2440     2.0179    -0.4371 C.ar    
  18 C18           -2.2487     1.8404     0.5047 C.ar    
  19 C19           -3.4111     2.5816     0.4204 C.ar    
  20 C20           -3.5751     3.4993    -0.6009 C.ar    
  21 C21           -2.5764     3.6784    -1.5404 C.ar    
  22 C22           -1.4091     2.9446    -1.4578 C.ar    
  23 S23           -5.0600     4.4421    -0.7056 S.o2    
  24 O24           -5.1862     4.8423    -2.0633 O.2     
  25 O25           -6.0569     3.6982    -0.0187 O.2     
  26 N26           -4.8238     5.8275     0.1702 N.am    
  27 C27           -1.1065    -0.9999    -0.8806 C.3     
  28 C28            1.5007     3.1903     0.2035 C.ar    
  29 C29            0.4941     4.0671     0.6104 C.ar    
  30 C30            0.7958     5.3890     0.8644 C.ar    
  31 C31            2.0942     5.8465     0.7160 C.ar    
  32 C32            3.0970     4.9813     0.3121 C.ar    
  33 C33            2.8085     3.6559     0.0612 C.ar    
  34 Cl34           2.4662     7.5115     1.0370 Cl      
  35 H35            3.1365     0.8204     0.1038 H       
  36 H36            3.4335    -4.0827     1.2627 H       
  37 H37            2.7410    -4.2100    -0.3721 H       
  38 H38            5.1795    -4.3685    -0.5211 H       
  39 H39            4.6517    -2.8265    -1.2367 H       
  40 H40            7.4506    -1.9031     0.9025 H       
  41 H41            7.3781    -3.4006    -0.0570 H       
  42 H42            6.8503    -1.8586    -0.7726 H       
  43 H43            3.8982    -1.7472     2.0981 H       
  44 H44            2.8428    -0.4557     1.4763 H       
  45 H45            1.9465    -1.2664     3.6053 H       
  46 H46            0.8531    -1.7567     2.2891 H       
  47 H47            1.2433    -4.7730     4.2922 H       
  48 H48            1.1399    -3.1302     4.9697 H       
  49 H49            0.0465    -3.6205     3.6535 H       
  50 H50           -2.1215     1.1233     1.3021 H       
  51 H51           -4.1929     2.4440     1.1527 H       
  52 H52           -2.7074     4.3959    -2.3368 H       
  53 H53           -0.6274     3.0884    -2.1891 H       
  54 H54           -3.9764     5.9805     0.6167 H       
  55 H55           -5.5329     6.4861     0.2368 H       
  56 H56           -1.2159    -1.0674    -1.9630 H       
  57 H57           -0.8986    -1.9897    -0.4741 H       
  58 H58           -2.0287    -0.6148    -0.4455 H       
  59 H59           -0.5191     3.7115     0.7258 H       
  60 H60            0.0176     6.0684     1.1794 H       
  61 H61            4.1078     5.3440     0.1973 H       
  62 H62            3.5924     2.9809    -0.2491 H       
@<TRIPOS>BOND
   1    1    2 1
   2    1    5 1
   3    1   17 1
   4    2    3 2
   5    2   27 1
   6    3    4 1
   7    3    6 1
   8    4    5 2
   9    4   35 1
  10    5   28 1
  11    6    7 2
  12    6    8 am
  13    8    9 1
  14    8   13 1
  15    9   10 1
  16    9   36 1
  17    9   37 1
  18   10   11 1
  19   10   38 1
  20   10   39 1
  21   11   12 1
  22   12   40 1
  23   12   41 1
  24   12   42 1
  25   13   14 1
  26   13   43 1
  27   13   44 1
  28   14   15 1
  29   14   45 1
  30   14   46 1
  31   15   16 1
  32   16   47 1
  33   16   48 1
  34   16   49 1
  35   17   18 ar
  36   17   22 ar
  37   18   19 ar
  38   18   50 1
  39   19   20 ar
  40   19   51 1
  41   20   21 ar
  42   20   23 1
  43   21   22 ar
  44   21   52 1
  45   22   53 1
  46   23   24 2
  47   23   25 2
  48   23   26 am
  49   26   54 1
  50   26   55 1
  51   27   56 1
  52   27   57 1
  53   27   58 1
  54   28   29 ar
  55   28   33 ar
  56   29   30 ar
  57   29   59 1
  58   30   31 ar
  59   30   60 1
  60   31   32 ar
  61   31   34 1
  62   32   33 ar
  63   32   61 1
  64   33   62 1

#	End of record

