#	Name: ASD04560022
#	Creating user name:	WinNT
#	Creation time:	15. 06. 2019 20:49

#	Modifying user name:	WinNT
#	Modification time:	15. 06. 2019 20:49

#	Program:	/corina/corina34_cracker 3.40 0067  02.08.2006

@<TRIPOS>MOLECULE
ASD04560022
  60   63    0    0    0
SMALL
NO_CHARGES


@<TRIPOS>ATOM
   1 C1            -0.0173     1.3666     0.0244 C.ar    
   2 C2             0.0010    -0.0041     0.0241 C.ar    
   3 C3             1.2157    -0.6859     0.0136 C.ar    
   4 C4             2.4151     0.0225     0.0039 C.ar    
   5 C5             2.4031     1.3933     0.0042 C.ar    
   6 C6             1.1852     2.0805     0.0143 C.ar    
   7 C7             1.1690     3.5549     0.0141 C.2     
   8 O8             2.2154     4.1746     0.0053 O.2     
   9 N9            -0.0055     4.2159     0.0238 N.am    
  10 C10           -0.0226     5.6108     0.1367 C.ar    
  11 C11           -0.9921     6.3504    -0.5279 C.ar    
  12 C12            0.9079     7.6335     1.0278 C.ar    
  13 C13            0.9265     6.2569     0.9179 C.ar    
  14 F14           -0.0727     9.7160     0.4686 F       
  15 S15            1.2351    -2.4478     0.0132 S.3     
  16 C16           -1.0071     7.7268    -0.4152 C.ar    
  17 C17           -0.0563     8.3694     0.3597 C.ar    
  18 C18            3.1932    -4.3318    -0.0038 C.ar    
  19 C19            3.2682    -5.0156    -1.2044 C.ar    
  20 C20            3.4440    -6.3841    -1.2120 C.ar    
  21 C21            3.5465    -7.0777    -0.0073 C.ar    
  22 C22            3.4707    -6.3837     1.1992 C.ar    
  23 C23            3.2944    -5.0153     1.1950 C.ar    
  24 C24            3.0069    -2.8364    -0.0020 C.3     
  25 B25            3.7461    -8.6350    -0.0092 Du      
  26 O26            3.8701    -9.5022     1.1270 O.3     
  27 C27            4.8847   -10.4563     0.7492 C.3     
  28 C28            4.8670   -10.4567    -0.7930 C.3     
  29 O29            3.8381    -9.5034    -1.1476 O.3     
  30 C30            6.2241   -10.0118    -1.3418 C.3     
  31 C31            4.5063   -11.8464    -1.3216 C.3     
  32 C32            6.2541   -10.0112     1.2665 C.3     
  33 C33            4.5364   -11.8458     1.2867 C.3     
  34 H34           -0.9594     1.8947     0.0280 H       
  35 H35           -0.9274    -0.5560     0.0322 H       
  36 H36            3.3553    -0.5088    -0.0035 H       
  37 H37            3.3333     1.9420    -0.0029 H       
  38 H38           -0.8390     3.7249    -0.0474 H       
  39 H39           -1.7336     5.8496    -1.1326 H       
  40 H40            1.6459     8.1363     1.6353 H       
  41 H41            1.6784     5.6833     1.4393 H       
  42 H42           -1.7607     8.3024    -0.9321 H       
  43 H43            3.1886    -4.4772    -2.1373 H       
  44 H44            3.5016    -6.9170    -2.1497 H       
  45 H45            3.5492    -6.9163     2.1355 H       
  46 H46            3.2355    -4.4766     2.1292 H       
  47 H47            3.4643    -2.4122    -0.8959 H       
  48 H48            3.4794    -2.4125     0.8840 H       
  49 H49            6.9982   -10.6965    -0.9955 H       
  50 H50            6.1949   -10.0175    -2.4314 H       
  51 H51            6.4459    -9.0044    -0.9895 H       
  52 H52            3.5197   -12.1298    -0.9551 H       
  53 H53            4.4981   -11.8297    -2.4115 H       
  54 H54            5.2443   -12.5698    -0.9749 H       
  55 H55            6.2324    -9.9605     2.3551 H       
  56 H56            7.0122   -10.7281     0.9512 H       
  57 H57            6.4933    -9.0278     0.8617 H       
  58 H58            3.5665   -12.1538     0.8961 H       
  59 H59            5.2981   -12.5589     0.9714 H       
  60 H60            4.4964   -11.8147     2.3755 H       
@<TRIPOS>BOND
   1    1    2 ar
   2    1    6 ar
   3    1   34 1
   4    2    3 ar
   5    2   35 1
   6    3    4 ar
   7    3   15 1
   8    4    5 ar
   9    4   36 1
  10    5    6 ar
  11    5   37 1
  12    6    7 1
  13    7    8 2
  14    7    9 am
  15    9   10 1
  16    9   38 1
  17   10   11 ar
  18   10   13 ar
  19   11   16 ar
  20   11   39 1
  21   12   13 ar
  22   12   17 ar
  23   12   40 1
  24   13   41 1
  25   14   17 1
  26   15   24 1
  27   16   17 ar
  28   16   42 1
  29   18   19 ar
  30   18   23 ar
  31   18   24 1
  32   19   20 ar
  33   19   43 1
  34   20   21 ar
  35   20   44 1
  36   21   22 ar
  37   21   25 1
  38   22   23 ar
  39   22   45 1
  40   23   46 1
  41   24   47 1
  42   24   48 1
  43   25   26 1
  44   25   29 1
  45   26   27 1
  46   27   28 1
  47   27   32 1
  48   27   33 1
  49   28   29 1
  50   28   30 1
  51   28   31 1
  52   30   49 1
  53   30   50 1
  54   30   51 1
  55   31   52 1
  56   31   53 1
  57   31   54 1
  58   32   55 1
  59   32   56 1
  60   32   57 1
  61   33   58 1
  62   33   59 1
  63   33   60 1

#	End of record

