#	Name: ASD08150051
#	Creating user name:	WinNT
#	Creation time:	15. 06. 2019 21:15

#	Modifying user name:	WinNT
#	Modification time:	15. 06. 2019 21:15

#	Program:	/corina/corina34_cracker 3.40 0067  02.08.2006

@<TRIPOS>MOLECULE
ASD08150051
  45   46    0    0    0
SMALL
NO_CHARGES


@<TRIPOS>ATOM
   1 C1             0.2366     1.1666    -0.1633 C.2     
   2 N2             0.1397    -0.1773    -0.1303 N.am    
   3 O3             1.3257     1.6948    -0.2691 O.2     
   4 O4            -0.8740     1.9237    -0.0847 O.3     
   5 S5            -1.3335    -0.8957     0.1064 S.o2    
   6 O6            -1.0680    -2.2331     0.5064 O.2     
   7 O7            -2.1014     0.0109     0.8859 O.2     
   8 C8            -2.1242    -0.9941    -1.4651 C.ar    
   9 C9            -3.2565    -1.7719    -1.6218 C.ar    
  10 C10           -3.8768    -1.8491    -2.8545 C.ar    
  11 C11           -3.3652    -1.1482    -3.9309 C.ar    
  12 C12           -2.2339    -0.3699    -3.7741 C.ar    
  13 C13           -1.6159    -0.2892    -2.5399 C.ar    
  14 N14           -3.8041    -2.5223    -0.4694 N.pl3   
  15 O15           -4.8276    -3.1704    -0.5956 O.2     
  16 O16           -3.2313    -2.4916     0.6050 O.2     
  17 C17            1.3377    -1.0025    -0.3038 C.3     
  18 C18            2.0939    -0.5790    -1.5415 C.2     
  19 C19            3.1358     0.1435    -1.2315 C.2     
  20 C20            3.2482     0.3222     0.2647 C.3     
  21 C21            2.3271    -0.7673     0.8610 C.3     
  22 C22           -0.6881     3.3626    -0.0275 C.3     
  23 C23            0.0417     3.8330    -1.2872 C.3     
  24 C24           -2.0523     4.0500     0.0582 C.3     
  25 C25            0.1420     3.7210     1.2067 C.3     
  26 H26           -4.7608    -2.4572    -2.9770 H       
  27 H27           -3.8495    -1.2091    -4.8943 H       
  28 H28           -1.8341     0.1773    -4.6150 H       
  29 H29           -0.7340     0.3218    -2.4165 H       
  30 H30            1.0661    -2.0563    -0.3667 H       
  31 H31            1.8098    -0.8401    -2.5502 H       
  32 H32            3.8270     0.5587    -1.9500 H       
  33 H33            4.2774     0.1687     0.5892 H       
  34 H34            2.9013     1.3137     0.5558 H       
  35 H35            1.8087    -0.3997     1.7466 H       
  36 H36            2.8887    -1.6739     1.0865 H       
  37 H37           -0.5497     3.5777    -2.1665 H       
  38 H38            0.1812     4.9132    -1.2443 H       
  39 H39            1.0136     3.3433    -1.3483 H       
  40 H40           -2.5723     3.7149     0.9557 H       
  41 H41           -1.9128     5.1302     0.1011 H       
  42 H42           -2.6437     3.7947    -0.8211 H       
  43 H43            1.1139     3.2313     1.1456 H       
  44 H44            0.2815     4.8012     1.2496 H       
  45 H45           -0.3780     3.3859     2.1042 H       
@<TRIPOS>BOND
   1    1    2 am
   2    1    3 2
   3    1    4 1
   4    2    5 am
   5    2   17 1
   6    4   22 1
   7    5    6 2
   8    5    7 2
   9    5    8 1
  10    8    9 ar
  11    8   13 ar
  12    9   10 ar
  13    9   14 1
  14   10   11 ar
  15   10   26 1
  16   11   12 ar
  17   11   27 1
  18   12   13 ar
  19   12   28 1
  20   13   29 1
  21   14   15 2
  22   14   16 2
  23   17   18 1
  24   17   21 1
  25   17   30 1
  26   18   19 2
  27   18   31 1
  28   19   20 1
  29   19   32 1
  30   20   21 1
  31   20   33 1
  32   20   34 1
  33   21   35 1
  34   21   36 1
  35   22   23 1
  36   22   25 1
  37   22   24 1
  38   23   37 1
  39   23   38 1
  40   23   39 1
  41   24   40 1
  42   24   41 1
  43   24   42 1
  44   25   43 1
  45   25   44 1
  46   25   45 1

#	End of record

