#	Name: ASD01884936
#	Creating user name:	WinNT
#	Creation time:	15. 06. 2019 19:49

#	Modifying user name:	WinNT
#	Modification time:	15. 06. 2019 19:49

#	Program:	/corina/corina34_cracker 3.40 0067  02.08.2006

@<TRIPOS>MOLECULE
ASD01884936
  50   54    0    0    0
SMALL
NO_CHARGES


@<TRIPOS>ATOM
   1 C1            -0.0166     1.3746     0.0096 C.ar    
   2 C2             0.0021    -0.0041     0.0020 C.ar    
   3 C3            -1.1977    -0.7167     0.0101 C.ar    
   4 C4            -2.4129    -0.0321     0.0259 C.ar    
   5 C5            -2.4265     1.3465     0.0334 C.ar    
   6 C6            -1.2306     2.0547     0.0307 C.ar    
   7 C7            -1.1808    -2.1978     0.0015 C.2     
   8 C8            -1.6665    -2.9084     1.0846 C.2     
   9 C9            -0.6727    -2.9009    -1.1181 C.2     
  10 C10           -0.6591    -4.2467    -1.1244 C.2     
  11 N11           -1.1319    -4.9566    -0.0579 N.pl3   
  12 C12           -1.6372    -4.3137     1.0461 C.2     
  13 Cl13          -2.3017    -2.0777     2.4703 Cl      
  14 C14           -1.2395    -6.2882     0.2060 C.2     
  15 N15           -1.7714    -6.4127     1.3946 N.2     
  16 N16           -2.0111    -5.2541     1.9003 N.2     
  17 C17           -0.8223    -7.4135    -0.7055 C.3     
  18 N18           -1.2474     3.4505     0.0383 N.pl3   
  19 C19            0.2417    -8.3838    -0.1886 C.3     
  20 C20           -1.2161    -8.8349    -0.2988 C.3     
  21 C21           -2.5247     4.1677     0.0493 C.3     
  22 C22           -2.3260     5.5540     0.6654 C.3     
  23 C23           -3.0389     4.3156    -1.3841 C.3     
  24 C24           -4.3730     5.0646    -1.3727 C.3     
  25 C25           -4.1742     6.4509    -0.7566 C.3     
  26 C26           -3.6601     6.3031     0.6768 C.3     
  27 O27           -5.4202     7.1505    -0.7460 O.3     
  28 Cl28           1.4751     2.2625     0.0001 Cl      
  29 H29            0.9442    -0.5319    -0.0105 H       
  30 H30           -3.3426    -0.5816     0.0318 H       
  31 H31           -3.3673     1.8766     0.0452 H       
  32 H32           -0.2952    -2.3550    -1.9701 H       
  33 H33           -0.2695    -4.7719    -1.9839 H       
  34 H34           -0.8143    -7.1781    -1.7697 H       
  35 H35           -0.4132     3.9456     0.0364 H       
  36 H36            0.9495    -8.7870    -0.9128 H       
  37 H37            0.6400    -8.2082     0.8108 H       
  38 H38           -1.7769    -8.9562     0.6280 H       
  39 H39           -1.4674    -9.5350    -1.0956 H       
  40 H40           -3.2504     3.6084     0.6397 H       
  41 H41           -1.9597     5.4487     1.6866 H       
  42 H42           -1.6003     6.1134     0.0750 H       
  43 H43           -2.3132     4.8750    -1.9746 H       
  44 H44           -3.1805     3.3280    -1.8231 H       
  45 H45           -4.7392     5.1700    -2.3939 H       
  46 H46           -5.0987     4.5053    -0.7823 H       
  47 H47           -3.4485     7.0103    -1.3471 H       
  48 H48           -4.3858     5.7437     1.2672 H       
  49 H49           -3.5185     7.2907     1.1157 H       
  50 H50           -5.3691     8.0391    -0.3681 H       
@<TRIPOS>BOND
   1    1    2 ar
   2    1   28 1
   3    1    6 ar
   4    2    3 ar
   5    2   29 1
   6    3    4 ar
   7    3    7 1
   8    4    5 ar
   9    4   30 1
  10    5    6 ar
  11    5   31 1
  12    6   18 1
  13    7    8 2
  14    7    9 1
  15    8   13 1
  16    8   12 1
  17    9   10 2
  18    9   32 1
  19   10   11 1
  20   10   33 1
  21   11   12 1
  22   11   14 1
  23   12   16 2
  24   14   15 2
  25   14   17 1
  26   15   16 1
  27   17   19 1
  28   17   20 1
  29   17   34 1
  30   18   21 1
  31   18   35 1
  32   19   20 1
  33   19   36 1
  34   19   37 1
  35   20   38 1
  36   20   39 1
  37   21   22 1
  38   21   23 1
  39   21   40 1
  40   22   26 1
  41   22   41 1
  42   22   42 1
  43   23   24 1
  44   23   43 1
  45   23   44 1
  46   24   25 1
  47   24   45 1
  48   24   46 1
  49   25   26 1
  50   25   27 1
  51   25   47 1
  52   26   48 1
  53   26   49 1
  54   27   50 1

#	End of record

