#	Name: ASD03090670
#	Creating user name:	WinNT
#	Creation time:	15. 06. 2019 20:29

#	Modifying user name:	WinNT
#	Modification time:	15. 06. 2019 20:29

#	Program:	/corina/corina34_cracker 3.40 0067  02.08.2006

@<TRIPOS>MOLECULE
ASD03090670
  35   36    0    0    0
SMALL
NO_CHARGES


@<TRIPOS>ATOM
   1 N1            -0.0162     1.3436     0.0094 N.am    
   2 C2             0.0192     0.1476     0.6299 C.2     
   3 O3             1.0726    -0.2854     1.0556 O.2     
   4 N4            -1.1130    -0.5683     0.7784 N.am    
   5 O5             0.0024    -2.4051     1.9370 O.3     
   6 N6            -0.2833    -3.4717     2.4296 N.2     
   7 C7            -1.5555    -3.7319     2.3173 C.2     
   8 C8            -2.1311    -2.6363     1.6432 C.2     
   9 C9            -1.0766    -1.7990     1.4169 C.2     
  10 C10           -2.2706    -4.9633     2.8108 C.3     
  11 C11            1.1454     2.1272    -0.0707 C.ar    
  12 C12            1.0455     3.5109    -0.1992 C.ar    
  13 C13            2.1934     4.2814    -0.2775 C.ar    
  14 C14            3.4399     3.6745    -0.2278 C.ar    
  15 C15            3.5374     2.2971    -0.1004 C.ar    
  16 C16            2.3934     1.5258    -0.0162 C.ar    
  17 O17            4.5671     4.4310    -0.3047 O.3     
  18 C18            5.8169     3.7406    -0.2473 C.3     
  19 O19           -0.1772     4.1037    -0.2481 O.3     
  20 C20           -0.2036     5.5263    -0.3806 C.3     
  21 H21           -0.8435     1.6609    -0.3853 H       
  22 H22           -1.9534    -0.2228     0.4388 H       
  23 H23           -3.1657    -2.4927     1.3686 H       
  24 H24           -2.6174    -4.7978     3.8308 H       
  25 H25           -3.1244    -5.1706     2.1658 H       
  26 H26           -1.5870    -5.8121     2.7928 H       
  27 H27            2.1184     5.3541    -0.3775 H       
  28 H28            4.5088     1.8266    -0.0623 H       
  29 H29            2.4717     0.4537     0.0879 H       
  30 H30            6.6329     4.4597    -0.3190 H       
  31 H31            5.8905     3.2003     0.6965 H       
  32 H32            5.8806     3.0350    -1.0757 H       
  33 H33            0.3081     5.9799     0.4683 H       
  34 H34            0.2989     5.8146    -1.3039 H       
  35 H35           -1.2377     5.8696    -0.4072 H       
@<TRIPOS>BOND
   1    1    2 am
   2    1   11 1
   3    1   21 1
   4    2    3 2
   5    2    4 am
   6    4    9 1
   7    4   22 1
   8    5    6 1
   9    5    9 1
  10    6    7 2
  11    7    8 1
  12    7   10 1
  13    8    9 2
  14    8   23 1
  15   10   24 1
  16   10   25 1
  17   10   26 1
  18   11   12 ar
  19   11   16 ar
  20   12   13 ar
  21   12   19 1
  22   13   14 ar
  23   13   27 1
  24   14   15 ar
  25   14   17 1
  26   15   16 ar
  27   15   28 1
  28   16   29 1
  29   17   18 1
  30   18   30 1
  31   18   31 1
  32   18   32 1
  33   19   20 1
  34   20   33 1
  35   20   34 1
  36   20   35 1

#	End of record

