#	Name: ASD07930897
#	Creating user name:	WinNT
#	Creation time:	15. 06. 2019 21:13

#	Modifying user name:	WinNT
#	Modification time:	15. 06. 2019 21:13

#	Program:	/corina/corina34_cracker 3.40 0067  02.08.2006

@<TRIPOS>MOLECULE
ASD07930897
  59   64    0    0    0
SMALL
NO_CHARGES


@<TRIPOS>ATOM
   1 N1            -0.0156     1.2970     0.0092 N.2     
   2 C2             0.0021    -0.0041     0.0020 C.2     
   3 N3             1.1480    -0.7297    -0.0124 N.am    
   4 C4             2.3519    -0.1117    -0.0201 C.2     
   5 C5             2.3587     1.3569    -0.0128 C.ar    
   6 C6             3.5563     2.0887    -0.0204 C.ar    
   7 C7             3.5523     3.4430    -0.0140 C.ar    
   8 C8             2.3428     4.1689     0.0006 C.ar    
   9 C9             1.1059     3.4790     0.0087 C.ar    
  10 C10            1.1175     2.0190     0.0022 C.ar    
  11 C11           -0.0902     4.2034     0.0237 C.ar    
  12 C12           -0.0542     5.5674     0.0302 C.ar    
  13 C13            1.1589     6.2482     0.0222 C.ar    
  14 C14            2.3424     5.5722     0.0077 C.ar    
  15 O15            3.3897    -0.7488    -0.0323 O.2     
  16 C16            4.8626     4.1874    -0.0220 C.3     
  17 C17            6.0180     3.6652     2.1405 C.ar    
  18 C18            5.2506     4.5366     1.3917 C.ar    
  19 C19            4.8415     5.7368     1.9550 C.ar    
  20 C20            5.2206     6.0184     3.2566 C.ar    
  21 C21            5.9929     5.0955     3.9502 C.ar    
  22 N22            6.3635     3.9612     3.3782 N.ar    
  23 N23            6.3828     5.3678     5.2650 N.pl3   
  24 N24            6.0682     6.5197     5.9977 N.2     
  25 C25            6.6081     6.4108     7.1843 C.2     
  26 C26            7.2851     5.1877     7.2503 C.2     
  27 C27            7.1295     4.5599     6.0621 C.2     
  28 C28            1.0819    -2.1932    -0.0191 C.3     
  29 C29            0.3502    -2.6765     1.2346 C.3     
  30 C30            0.2811    -4.2049     1.2276 C.3     
  31 C31           -0.4741    -4.6756    -0.0170 C.3     
  32 C32            0.2577    -4.1923    -1.2708 C.3     
  33 C33            0.3267    -2.6639    -1.2637 C.3     
  34 O34            1.0555    -2.2369     2.3970 O.3     
  35 H35           -0.9405    -0.5313     0.0082 H       
  36 H36            4.4990     1.5619    -0.0312 H       
  37 H37           -1.0381     3.6857     0.0296 H       
  38 H38           -0.9788     6.1253     0.0414 H       
  39 H39            1.1630     7.3282     0.0273 H       
  40 H40            3.2763     6.1145     0.0020 H       
  41 H41            5.6346     3.5592    -0.4661 H       
  42 H42            4.7575     5.1016    -0.6063 H       
  43 H43            6.3352     2.7277     1.7082 H       
  44 H44            4.2415     6.4355     1.3910 H       
  45 H45            4.9201     6.9435     3.7261 H       
  46 H46            6.5429     7.1407     7.9776 H       
  47 H47            7.8318     4.8096     8.1015 H       
  48 H48            7.5288     3.5927     5.7947 H       
  49 H49            2.0921    -2.6025    -0.0307 H       
  50 H50           -0.6600    -2.2672     1.2462 H       
  51 H51            1.2913    -4.6142     1.2160 H       
  52 H52           -0.2402    -4.5492     2.1208 H       
  53 H53           -0.5232    -5.7645    -0.0220 H       
  54 H54           -1.4842    -4.2663    -0.0055 H       
  55 H55            1.2679    -4.6016    -1.2823 H       
  56 H56           -0.2803    -4.5276    -2.1574 H       
  57 H57           -0.6835    -2.2546    -1.2522 H       
  58 H58            0.8480    -2.3196    -2.1569 H       
  59 H59            0.6474    -2.5079     3.2307 H       
@<TRIPOS>BOND
   1    1    2 2
   2    1   10 1
   3    2    3 1
   4    2   35 1
   5    3    4 am
   6    3   28 1
   7    4    5 1
   8    4   15 2
   9    5    6 ar
  10    5   10 ar
  11    6    7 ar
  12    6   36 1
  13    7    8 ar
  14    7   16 1
  15    8    9 ar
  16    8   14 ar
  17    9   10 ar
  18    9   11 ar
  19   11   12 ar
  20   11   37 1
  21   12   13 ar
  22   12   38 1
  23   13   14 ar
  24   13   39 1
  25   14   40 1
  26   16   18 1
  27   16   41 1
  28   16   42 1
  29   17   18 ar
  30   17   22 ar
  31   17   43 1
  32   18   19 ar
  33   19   20 ar
  34   19   44 1
  35   20   21 ar
  36   20   45 1
  37   21   22 ar
  38   21   23 1
  39   23   24 1
  40   23   27 1
  41   24   25 2
  42   25   26 1
  43   25   46 1
  44   26   27 2
  45   26   47 1
  46   27   48 1
  47   28   29 1
  48   28   33 1
  49   28   49 1
  50   29   30 1
  51   29   34 1
  52   29   50 1
  53   30   31 1
  54   30   51 1
  55   30   52 1
  56   31   32 1
  57   31   53 1
  58   31   54 1
  59   32   33 1
  60   32   55 1
  61   32   56 1
  62   33   57 1
  63   33   58 1
  64   34   59 1

#	End of record

