#	Name: ASD01900617
#	Creating user name:	WinNT
#	Creation time:	15. 06. 2019 19:52

#	Modifying user name:	WinNT
#	Modification time:	15. 06. 2019 19:52

#	Program:	/corina/corina34_cracker 3.40 0067  02.08.2006

@<TRIPOS>MOLECULE
ASD01900617
  41   43    0    0    0
SMALL
NO_CHARGES


@<TRIPOS>ATOM
   1 C1             0.9851     3.1573     0.7501 C.ar    
   2 C2             2.0485     3.6081     1.5286 C.ar    
   3 C3             3.2484     2.9147     1.4968 C.ar    
   4 C4             3.3435     1.7941     0.6873 C.ar    
   5 C5             2.2440     1.4015    -0.0620 C.ar    
   6 N6             1.1165     2.0788    -0.0127 N.ar    
   7 C7            -0.3053     3.8841     0.7782 C.2     
   8 O8            -0.4328     4.8691     1.4784 O.2     
   9 N9            -1.3380     3.4529     0.0271 N.am    
  10 C10           -2.5843     4.0791     0.1267 C.ar    
  11 C11           -2.6596     5.4499     0.3375 C.ar    
  12 C12           -3.8921     6.0654     0.4349 C.ar    
  13 C13           -5.0504     5.3184     0.3232 C.ar    
  14 C14           -4.9790     3.9534     0.1133 C.ar    
  15 C15           -3.7497     3.3326     0.0092 C.ar    
  16 S16           -6.6208     6.1074     0.4492 S.o2    
  17 O17           -7.4924     5.0823     0.9062 O.2     
  18 O18           -6.3705     7.2621     1.2386 O.2     
  19 C19           -7.0292     6.5775    -1.2546 C.3     
  20 C20           -8.3676     7.2698    -1.2776 C.ar    
  21 C21           -8.4388     8.6435    -1.1272 C.ar    
  22 C22           -9.6676     9.2783    -1.1489 C.ar    
  23 C23          -10.8237     8.5402    -1.3209 C.ar    
  24 C24          -10.7520     7.1680    -1.4706 C.ar    
  25 C25           -9.5236     6.5335    -1.4547 C.ar    
  26 Cl26          -6.9866     9.5697    -0.9107 Cl      
  27 Cl27           2.3569    -0.0012    -1.0785 Cl      
  28 H28            1.9398     4.4860     2.1482 H       
  29 H29            4.0904     3.2408     2.0894 H       
  30 H30            4.2645     1.2321     0.6399 H       
  31 H31           -1.2168     2.7082    -0.5824 H       
  32 H32           -1.7553     6.0338     0.4256 H       
  33 H33           -3.9513     7.1313     0.5988 H       
  34 H34           -5.8855     3.3728     0.0268 H       
  35 H35           -3.6946     2.2672    -0.1588 H       
  36 H36           -6.2643     7.2525    -1.6386 H       
  37 H37           -7.0715     5.6841    -1.8777 H       
  38 H38           -9.7238    10.3504    -1.0312 H       
  39 H39          -11.7831     9.0357    -1.3379 H       
  40 H40          -11.6555     6.5916    -1.6043 H       
  41 H41           -9.4678     5.4618    -1.5762 H       
@<TRIPOS>BOND
   1    1    2 ar
   2    1    6 ar
   3    1    7 1
   4    2    3 ar
   5    2   28 1
   6    3    4 ar
   7    3   29 1
   8    4    5 ar
   9    4   30 1
  10    5    6 ar
  11    5   27 1
  12    7    8 2
  13    7    9 am
  14    9   10 1
  15    9   31 1
  16   10   11 ar
  17   10   15 ar
  18   11   12 ar
  19   11   32 1
  20   12   13 ar
  21   12   33 1
  22   13   14 ar
  23   13   16 1
  24   14   15 ar
  25   14   34 1
  26   15   35 1
  27   16   17 2
  28   16   18 2
  29   16   19 1
  30   19   20 1
  31   19   36 1
  32   19   37 1
  33   20   21 ar
  34   20   25 ar
  35   21   22 ar
  36   21   26 1
  37   22   23 ar
  38   22   38 1
  39   23   24 ar
  40   23   39 1
  41   24   25 ar
  42   24   40 1
  43   25   41 1

#	End of record

