#	Name: ASD02508346
#	Creating user name:	WinNT
#	Creation time:	15. 06. 2019 20:24

#	Modifying user name:	WinNT
#	Modification time:	15. 06. 2019 20:24

#	Program:	/corina/corina34_cracker 3.40 0067  02.08.2006

@<TRIPOS>MOLECULE
ASD02508346
  50   54    0    0    0
SMALL
NO_CHARGES


@<TRIPOS>ATOM
   1 C1            -0.0166     1.3764     0.0096 C.ar    
   2 C2             0.0021    -0.0041     0.0020 C.ar    
   3 C3            -1.1881    -0.7112     0.0100 C.ar    
   4 C4            -2.3942    -0.0377     0.0251 C.ar    
   5 C5            -2.4129     1.3447     0.0327 C.ar    
   6 C6            -1.2256     2.0509     0.0299 C.ar    
   7 S7            -3.9503     2.2053     0.0519 S.o2    
   8 O8            -3.6952     3.4948    -0.4881 O.2     
   9 O9            -4.9161     1.3138    -0.4882 O.2     
  10 C10           -4.3894     2.4511     1.7405 C.ar    
  11 C11           -3.9764     3.5922     2.4016 C.ar    
  12 C12           -4.3200     3.7879     3.7311 C.ar    
  13 C13           -5.0836     2.8352     4.3949 C.ar    
  14 C14           -5.4942     1.6918     3.7258 C.ar    
  15 C15           -5.1514     1.5046     2.4001 C.ar    
  16 O16           -3.8993     4.9128     4.3714 O.3     
  17 C17           -4.5750     5.2522     5.5871 C.3     
  18 C18           -4.6954     3.9827     6.4409 C.3     
  19 O19           -5.4386     3.0110     5.6971 O.3     
  20 S20            3.9485     0.7400    -0.0322 S.o2    
  21 C21            4.4866     0.7385     1.6457 C.ar    
  22 O22            4.3274     1.9979    -0.5739 O.2     
  23 O23            4.3613    -0.5013    -0.5871 O.2     
  24 C24            1.4034     1.8833    -0.0012 C.3     
  25 N25            2.2927     0.7175    -0.0160 N.am    
  26 C26            1.4353    -0.4720    -0.0142 C.3     
  27 C27            4.7139    -0.4592     2.2975 C.ar    
  28 C28            5.1359    -0.4604     3.6139 C.ar    
  29 C29            5.3311     0.7360     4.2782 C.ar    
  30 C30            5.1047     1.9337     3.6261 C.ar    
  31 C31            4.6868     1.9349     2.3084 C.ar    
  32 H32           -1.1737    -1.7911     0.0041 H       
  33 H33           -3.3218    -0.5906     0.0306 H       
  34 H34           -1.2405     3.1307     0.0362 H       
  35 H35           -3.3851     4.3321     1.8827 H       
  36 H36           -6.0856     0.9487     4.2401 H       
  37 H37           -5.4721     0.6136     1.8810 H       
  38 H38           -4.0025     6.0059     6.1278 H       
  39 H39           -5.5689     5.6379     5.3599 H       
  40 H40           -3.7017     3.5939     6.6636 H       
  41 H41           -5.2174     4.2125     7.3698 H       
  42 H42            1.5728     2.4885    -0.8918 H       
  43 H43            1.5899     2.4789     0.8924 H       
  44 H44            1.6380    -1.0722     0.8728 H       
  45 H45            1.6210    -1.0627    -0.9113 H       
  46 H46            4.5613    -1.3939     1.7785 H       
  47 H47            5.3128    -1.3961     4.1233 H       
  48 H48            5.6602     0.7350     5.3069 H       
  49 H49            5.2569     2.8684     4.1452 H       
  50 H50            4.5099     2.8706     1.7989 H       
@<TRIPOS>BOND
   1    1    2 ar
   2    1   24 1
   3    1    6 ar
   4    2    3 ar
   5    2   26 1
   6    3    4 ar
   7    3   32 1
   8    4    5 ar
   9    4   33 1
  10    5    6 ar
  11    5    7 1
  12    6   34 1
  13    7    8 2
  14    7    9 2
  15    7   10 1
  16   10   11 ar
  17   10   15 ar
  18   11   12 ar
  19   11   35 1
  20   12   13 ar
  21   12   16 1
  22   13   14 ar
  23   13   19 1
  24   14   15 ar
  25   14   36 1
  26   15   37 1
  27   16   17 1
  28   17   18 1
  29   17   38 1
  30   17   39 1
  31   18   19 1
  32   18   40 1
  33   18   41 1
  34   20   21 1
  35   20   22 2
  36   20   23 2
  37   20   25 am
  38   21   27 ar
  39   21   31 ar
  40   24   25 1
  41   24   42 1
  42   24   43 1
  43   25   26 1
  44   26   44 1
  45   26   45 1
  46   27   28 ar
  47   27   46 1
  48   28   29 ar
  49   28   47 1
  50   29   30 ar
  51   29   48 1
  52   30   31 ar
  53   30   49 1
  54   31   50 1

#	End of record

