#	Name: ASD00171046
#	Creating user name:	WinNT
#	Creation time:	15. 06. 2019 18:32

#	Modifying user name:	WinNT
#	Modification time:	15. 06. 2019 18:32

#	Program:	/corina/corina34_cracker 3.40 0067  02.08.2006

@<TRIPOS>MOLECULE
ASD00171046
  31   33    0    0    0
SMALL
NO_CHARGES


@<TRIPOS>ATOM
   1 C1            -0.0084     1.4583     0.0728 C.ar    
   2 C2             0.0279     0.0435    -0.0101 C.ar    
   3 C3            -1.1767    -0.6791    -0.0731 C.ar    
   4 C4            -2.3649    -0.0197    -0.0540 C.ar    
   5 C5            -2.4114     1.3775     0.0273 C.ar    
   6 C6            -1.2488     2.1176     0.0857 C.ar    
   7 S7            -3.9702     2.1987     0.0486 S.3     
   8 C8            -4.1621     2.6411     1.7433 C.ar    
   9 C9            -3.2361     2.2082     2.6832 C.ar    
  10 C10           -3.3865     2.5549     4.0116 C.ar    
  11 C11           -4.4636     3.3365     4.4080 C.ar    
  12 C12           -5.3902     3.7705     3.4685 C.ar    
  13 C13           -5.2376     3.4285     2.1390 C.ar    
  14 Cl14          -6.3954     3.9706     0.9646 Cl      
  15 N15           -4.6159     3.6868     5.7545 N.pl3   
  16 C16            1.1985     2.1767     0.1350 C.ar    
  17 C17            2.3829     1.5066     0.1148 C.ar    
  18 C18            2.4186     0.1157     0.0333 C.ar    
  19 C19            1.2704    -0.6127    -0.0285 C.ar    
  20 Cl20          -1.3182     3.8492     0.1869 Cl      
  21 H21           -1.1577    -1.7570    -0.1368 H       
  22 H22           -3.2862    -0.5811    -0.1027 H       
  23 H23           -2.3984     1.5999     2.3755 H       
  24 H24           -2.6664     2.2178     4.7424 H       
  25 H25           -6.2279     4.3784     3.7771 H       
  26 H26           -3.9691     3.3835     6.4107 H       
  27 H27           -5.3683     4.2328     6.0315 H       
  28 H28            1.1859     3.2547     0.1980 H       
  29 H29            3.3087     2.0608     0.1623 H       
  30 H30            3.3718    -0.3918     0.0186 H       
  31 H31            1.3141    -1.6900    -0.0910 H       
@<TRIPOS>BOND
   1    1    2 ar
   2    1   16 ar
   3    1    6 ar
   4    2    3 ar
   5    2   19 ar
   6    3    4 ar
   7    3   21 1
   8    4    5 ar
   9    4   22 1
  10    5    6 ar
  11    5    7 1
  12    6   20 1
  13    7    8 1
  14    8    9 ar
  15    8   13 ar
  16    9   10 ar
  17    9   23 1
  18   10   11 ar
  19   10   24 1
  20   11   12 ar
  21   11   15 1
  22   12   13 ar
  23   12   25 1
  24   13   14 1
  25   15   26 1
  26   15   27 1
  27   16   17 ar
  28   16   28 1
  29   17   18 ar
  30   17   29 1
  31   18   19 ar
  32   18   30 1
  33   19   31 1

#	End of record

