#	Name: ASD01190062
#	Creating user name:	WinNT
#	Creation time:	15. 06. 2019 19:07

#	Modifying user name:	WinNT
#	Modification time:	15. 06. 2019 19:07

#	Program:	/corina/corina34_cracker 3.40 0067  02.08.2006

@<TRIPOS>MOLECULE
ASD01190062
  46   50    0    0    0
SMALL
NO_CHARGES


@<TRIPOS>ATOM
   1 C1            -0.0187     1.5258     0.0104 C.3     
   2 C2             0.5322     0.1140    -0.2002 C.3     
   3 C3             2.2741     4.2923     1.1233 C.ar    
   4 C4             0.9858     3.8681     0.7492 C.ar    
   5 C5            -0.0629     4.7920     0.7267 C.ar    
   6 C6             0.2150     6.0990     1.0776 C.ar    
   7 C7             1.5088     6.4477     1.4361 C.ar    
   8 N8             2.4825     5.5617     1.4506 N.ar    
   9 N9             3.0961     3.1914     1.0514 N.pl3   
  10 C10            1.0951     2.4384     0.4552 C.2     
  11 C11            2.3790     2.0974     0.6488 C.2     
  12 O12            3.7846     5.9731     1.8249 O.3     
  13 N13           -2.4300     3.4136    -4.7046 N.pl3   
  14 N14           -3.7651     3.3907    -4.2882 N.2     
  15 C15           -3.8436     2.9647    -3.0593 C.2     
  16 C16           -2.4889     2.6766    -2.5990 C.ar    
  17 C17           -1.9500     2.2030    -1.3976 C.ar    
  18 C18           -0.6003     2.0362    -1.2827 C.ar    
  19 C19            0.2428     2.3331    -2.3467 C.ar    
  20 C20           -0.2598     2.7972    -3.5293 C.ar    
  21 C21           -1.6325     2.9768    -3.6761 C.ar    
  22 C22           -1.9795     3.8123    -5.9698 C.ar    
  23 C23           -2.7440     3.5417    -7.0971 C.ar    
  24 C24           -2.2981     3.9356    -8.3434 C.ar    
  25 C25           -1.0896     4.5999    -8.4694 C.ar    
  26 C26           -0.3257     4.8706    -7.3465 C.ar    
  27 C27           -0.7706     4.4836    -6.0977 C.ar    
  28 F28           -0.6550     4.9839    -9.6896 F       
  29 F29            1.0721    -0.3599     1.0002 F       
  30 F30           -0.5018    -0.7332    -0.6131 F       
  31 F31            1.5298     0.1441    -1.1805 F       
  32 O32           -1.0378     1.4950     1.0117 O.3     
  33 H33           -1.0611     4.4930     0.4431 H       
  34 H34           -0.5681     6.8427     1.0724 H       
  35 H35            1.7226     7.4704     1.7098 H       
  36 H36            4.0443     3.1907     1.2558 H       
  37 H37            2.7847     1.1059     0.5119 H       
  38 H38           -4.7497     2.8462    -2.4837 H       
  39 H39           -2.5985     1.9708    -0.5658 H       
  40 H40            1.3084     2.1956    -2.2373 H       
  41 H41            0.4064     3.0245    -4.3484 H       
  42 H42           -3.6864     3.0234    -6.9992 H       
  43 H43           -2.8922     3.7251    -9.2204 H       
  44 H44            0.6167     5.3885    -7.4469 H       
  45 H45           -0.1769     4.6992    -5.2217 H       
  46 H46           -1.4328     2.3578     1.1975 H       
@<TRIPOS>BOND
   1    1    2 1
   2    1   10 1
   3    1   18 1
   4    1   32 1
   5    2   29 1
   6    2   30 1
   7    2   31 1
   8    3    4 ar
   9    3    8 ar
  10    3    9 1
  11    4    5 ar
  12    4   10 1
  13    5    6 ar
  14    5   33 1
  15    6    7 ar
  16    6   34 1
  17    7    8 ar
  18    7   35 1
  19    8   12 1
  20    9   11 1
  21    9   36 1
  22   10   11 2
  23   11   37 1
  24   13   14 1
  25   13   21 1
  26   13   22 1
  27   14   15 2
  28   15   16 1
  29   15   38 1
  30   16   17 ar
  31   16   21 ar
  32   17   18 ar
  33   17   39 1
  34   18   19 ar
  35   19   20 ar
  36   19   40 1
  37   20   21 ar
  38   20   41 1
  39   22   23 ar
  40   22   27 ar
  41   23   24 ar
  42   23   42 1
  43   24   25 ar
  44   24   43 1
  45   25   26 ar
  46   25   28 1
  47   26   27 ar
  48   26   44 1
  49   27   45 1
  50   32   46 1

#	End of record

