#	Name: ASD01150374
#	Creating user name:	WinNT
#	Creation time:	15. 06. 2019 19:04

#	Modifying user name:	WinNT
#	Modification time:	15. 06. 2019 19:04

#	Program:	/corina/corina34_cracker 3.40 0067  02.08.2006

@<TRIPOS>MOLECULE
ASD01150374
  49   51    0    0    0
SMALL
NO_CHARGES


@<TRIPOS>ATOM
   1 C1             2.0702     1.2048     0.9464 C.ar    
   2 C2             2.0534    -0.1514     0.6850 C.ar    
   3 C3             1.2127    -0.6605    -0.2864 C.ar    
   4 C4             0.3818     0.1907    -1.0037 C.ar    
   5 C5             0.3960     1.5536    -0.7437 C.ar    
   6 C6             1.2411     2.0618     0.2327 C.ar    
   7 N7             1.2583     3.4355     0.4983 N.am    
   8 C8             0.0978     4.0896     0.6813 C.2     
   9 N9             0.0774     5.4108     0.9381 N.am    
  10 C10            1.2335     6.1020     1.0163 C.2     
  11 C11            2.5062     5.3922     0.8175 C.2     
  12 N12            2.4836     4.1080     0.5754 N.2     
  13 O13            1.2233     7.2967     1.2477 O.2     
  14 C14           -1.2013     6.0989     1.1324 C.3     
  15 O15           -0.9508     3.4775     0.6133 O.2     
  16 C16           -1.5731     6.0651     2.5924 C.ar    
  17 C17           -1.1619     7.0819     3.4339 C.ar    
  18 C18           -1.5027     7.0514     4.7730 C.ar    
  19 C19           -2.2555     6.0029     5.2713 C.ar    
  20 C20           -2.6667     4.9856     4.4287 C.ar    
  21 C21           -2.3301     5.0201     3.0886 C.ar    
  22 Cl22          -2.6834     5.9636     6.9533 Cl      
  23 O23            3.6871     6.0599     0.8899 O.3     
  24 C24            4.8776     5.2965     0.6848 C.3     
  25 N25           -0.4685    -0.3257    -1.9877 N.am    
  26 C26           -1.0413    -1.5337    -1.8171 C.2     
  27 C27           -2.0388    -2.0438    -2.8250 C.3     
  28 O28           -0.7540    -2.2103    -0.8523 O.2     
  29 O29           -2.5004    -3.3361    -2.4264 O.3     
  30 C30           -3.4555    -3.9130    -3.3192 C.3     
  31 H31            2.7252     1.5990     1.7094 H       
  32 H32            2.6990    -0.8153     1.2408 H       
  33 H33            1.2020    -1.7214    -0.4883 H       
  34 H34           -0.2488     2.2175    -1.3003 H       
  35 H35           -1.1101     7.1345     0.8046 H       
  36 H36           -1.9748     5.5998     0.5488 H       
  37 H37           -0.5740     7.9000     3.0449 H       
  38 H38           -1.1811     7.8456     5.4304 H       
  39 H39           -3.2544     4.1669     4.8170 H       
  40 H40           -2.6511     4.2260     2.4307 H       
  41 H41            5.7466     5.9490     0.7693 H       
  42 H42            4.9391     4.5102     1.4371 H       
  43 H43            4.8551     4.8482    -0.3085 H       
  44 H44           -0.6457     0.1857    -2.7927 H       
  45 H45           -2.8836    -1.3571    -2.8798 H       
  46 H46           -1.5634    -2.1136    -3.8034 H       
  47 H47           -3.0095    -4.0216    -4.3078 H       
  48 H48           -3.7560    -4.8922    -2.9465 H       
  49 H49           -4.3297    -3.2651    -3.3841 H       
@<TRIPOS>BOND
   1    1    2 ar
   2    1    6 ar
   3    1   31 1
   4    2    3 ar
   5    2   32 1
   6    3    4 ar
   7    3   33 1
   8    4    5 ar
   9    4   25 1
  10    5    6 ar
  11    5   34 1
  12    6    7 1
  13    7    8 am
  14    7   12 1
  15    8    9 am
  16    8   15 2
  17    9   10 am
  18    9   14 1
  19   10   11 1
  20   10   13 2
  21   11   12 2
  22   11   23 1
  23   14   16 1
  24   14   35 1
  25   14   36 1
  26   16   17 ar
  27   16   21 ar
  28   17   18 ar
  29   17   37 1
  30   18   19 ar
  31   18   38 1
  32   19   20 ar
  33   19   22 1
  34   20   21 ar
  35   20   39 1
  36   21   40 1
  37   23   24 1
  38   24   41 1
  39   24   42 1
  40   24   43 1
  41   25   26 am
  42   25   44 1
  43   26   27 1
  44   26   28 2
  45   27   29 1
  46   27   45 1
  47   27   46 1
  48   29   30 1
  49   30   47 1
  50   30   48 1
  51   30   49 1

#	End of record

