#	Name: ASD04880694
#	Creating user name:	WinNT
#	Creation time:	15. 06. 2019 20:53

#	Modifying user name:	WinNT
#	Modification time:	15. 06. 2019 20:53

#	Program:	/corina/corina34_cracker 3.40 0067  02.08.2006

@<TRIPOS>MOLECULE
ASD04880694
  49   51    0    0    0
SMALL
NO_CHARGES


@<TRIPOS>ATOM
   1 C1            -0.8447     2.2263    -1.4641 C.ar    
   2 C2            -1.1681     0.9048    -1.2394 C.ar    
   3 C3            -0.1983     0.0147    -0.8012 C.ar    
   4 C4             1.1071     0.4515    -0.5864 C.ar    
   5 C5             1.4389     1.7746    -0.8099 C.ar    
   6 C6             0.4624     2.6714    -1.2508 C.ar    
   7 O7            -0.5227    -1.2868    -0.5804 O.3     
   8 C8            -1.8792    -1.6669    -0.8201 C.3     
   9 N9             2.0032     4.5700    -1.4660 N.2     
  10 N10            2.0660     5.9375    -1.7260 N.am    
  11 C11            0.7030     6.4404    -1.9600 C.3     
  12 C12           -0.1776     5.1848    -1.8034 C.3     
  13 C13            0.8104     4.0838    -1.4904 C.2     
  14 C14            3.1912     6.6786    -1.7576 C.2     
  15 C15            4.5144     6.0554    -1.3944 C.3     
  16 O16            3.1389     7.8474    -2.0784 O.2     
  17 C17            4.9218     5.0799    -2.4683 C.ar    
  18 O18            5.5063     7.0775    -1.2780 O.3     
  19 C19            5.4503     5.5455    -3.6595 C.ar    
  20 C20            5.8274     4.6570    -4.6505 C.ar    
  21 C21            5.6786     3.2991    -4.4570 C.ar    
  22 C22            5.1461     2.8224    -3.2577 C.ar    
  23 C23            4.7725     3.7248    -2.2595 C.ar    
  24 O24            2.0548    -0.4239    -0.1563 O.3     
  25 C25            3.3408     0.1146     0.1572 C.3     
  26 C26            6.5425     6.7778    -0.3407 C.3     
  27 C27            4.9888     1.4143    -3.0499 C.1     
  28 N28            4.8641     0.2973    -2.8851 N.1     
  29 H29           -1.6006     2.9161    -1.8092 H       
  30 H30           -2.1788     0.5619    -1.4047 H       
  31 H31            2.4504     2.1145    -0.6434 H       
  32 H32           -2.5386    -1.0871    -0.1742 H       
  33 H33           -2.1314    -1.4751    -1.8630 H       
  34 H34           -2.0023    -2.7286    -0.6059 H       
  35 H35            0.4376     7.1904    -1.2149 H       
  36 H36            0.6125     6.8493    -2.9664 H       
  37 H37           -0.8818     5.3118    -0.9812 H       
  38 H38           -0.7070     4.9708    -2.7319 H       
  39 H39            4.4201     5.5307    -0.4437 H       
  40 H40            5.5686     6.6075    -3.8163 H       
  41 H41            6.2389     5.0272    -5.5779 H       
  42 H42            5.9731     2.6065    -5.2316 H       
  43 H43            4.3637     3.3625    -1.3278 H       
  44 H44            3.7582     0.5967    -0.7268 H       
  45 H45            3.2425     0.8472     0.9583 H       
  46 H46            4.0027    -0.6893     0.4794 H       
  47 H47            6.1078     6.6373     0.6489 H       
  48 H48            7.0551     5.8653    -0.6452 H       
  49 H49            7.2551     7.6021    -0.3109 H       
@<TRIPOS>BOND
   1    1    2 ar
   2    1    6 ar
   3    1   29 1
   4    2    3 ar
   5    2   30 1
   6    3    4 ar
   7    3    7 1
   8    4    5 ar
   9    4   24 1
  10    5    6 ar
  11    5   31 1
  12    6   13 1
  13    7    8 1
  14    8   32 1
  15    8   33 1
  16    8   34 1
  17    9   10 1
  18    9   13 2
  19   10   11 1
  20   10   14 am
  21   11   12 1
  22   11   35 1
  23   11   36 1
  24   12   13 1
  25   12   37 1
  26   12   38 1
  27   14   15 1
  28   14   16 2
  29   15   17 1
  30   15   18 1
  31   15   39 1
  32   17   19 ar
  33   17   23 ar
  34   18   26 1
  35   19   20 ar
  36   19   40 1
  37   20   21 ar
  38   20   41 1
  39   21   22 ar
  40   21   42 1
  41   22   23 ar
  42   22   27 1
  43   23   43 1
  44   24   25 1
  45   25   44 1
  46   25   45 1
  47   25   46 1
  48   26   47 1
  49   26   48 1
  50   26   49 1
  51   27   28 3

#	End of record

