#	Name: ASD06590077
#	Creating user name:	WinNT
#	Creation time:	15. 06. 2019 21:06

#	Modifying user name:	WinNT
#	Modification time:	15. 06. 2019 21:06

#	Program:	/corina/corina34_cracker 3.40 0067  02.08.2006

@<TRIPOS>MOLECULE
ASD06590077
 337  337    0    0    0
SMALL
NO_CHARGES


@<TRIPOS>ATOM
   1 C1            -0.4226    -0.1151     8.8520 C.2     
   2 O2             0.0887    -0.3920     7.7877 O.2     
   3 N3             1.8029     0.5661     9.5389 N.am    
   4 C4             0.3894     0.5652     9.9238 C.3     
   5 C5            -0.0943     2.0070    10.0922 C.3     
   6 C6             0.7170     2.6917    11.1940 C.3     
   7 O7             0.0799     2.7144     8.8629 O.3     
   8 C8            -3.8107    -0.1464     7.8731 C.2     
   9 O9            -4.0069     0.7880     8.6210 O.2     
  10 N10           -1.7186    -0.4109     9.0742 N.am    
  11 C11           -2.5426    -0.9522     7.9905 C.3     
  12 C12           -2.8913    -2.4105     8.2946 C.3     
  13 C13           -1.6246    -3.2223     8.3816 C.2     
  14 O14           -0.5472    -2.6805     8.2530 O.2     
  15 N15           -1.6890    -4.5503     8.6024 N.am    
  16 C16           -7.0375    -0.5289     6.1985 C.2     
  17 O17           -6.7995    -1.6747     5.8802 O.2     
  18 N18           -4.7268    -0.4642     6.9370 N.am    
  19 C19           -5.9596     0.3191     6.8229 C.3     
  20 C20           -5.7045     1.5467     5.9462 C.3     
  21 C21          -10.5822    -0.0326     5.2695 C.2     
  22 O22          -10.6080     1.1170     5.6549 O.2     
  23 N23           -8.2661    -0.0140     5.9939 N.am    
  24 C24           -9.3141    -0.8384     5.3869 C.3     
  25 C25          -14.1059    -0.7363     4.5976 C.2     
  26 O26          -13.9377    -1.9353     4.6686 O.2     
  27 N27          -11.6875    -0.5896     4.7362 N.am    
  28 C28          -12.9203     0.1937     4.6221 C.3     
  29 C29          -12.8870     1.0117     3.3295 C.3     
  30 C30          -11.7585     2.0419     3.4069 C.3     
  31 C31          -11.7252     2.8599     2.1143 C.3     
  32 N32          -10.6447     3.8464     2.1884 N.pl3   
  33 C33          -10.4207     4.7010     1.1350 C.2     
  34 N34           -9.4593     5.5787     1.2009 N.2     
  35 N35          -11.2107     4.6298     0.0121 N.pl3   
  36 C36          -17.6559    -0.4687     3.7675 C.2     
  37 O37          -17.5257     0.6540     3.3277 O.2     
  38 N38          -15.3531    -0.2356     4.4970 N.am    
  39 C39          -16.5057    -1.1396     4.4732 C.3     
  40 C40          -16.9161    -1.4804     5.9072 C.3     
  41 O41          -17.3765    -0.2982     6.5647 O.3     
  42 C42          -20.7481     0.3645     3.7428 C.2     
  43 O43          -20.4688     0.4704     4.9182 O.2     
  44 N44          -18.8292    -1.1164     3.6251 N.am    
  45 C45          -19.9108    -0.5097     2.8452 C.3     
  46 C46          -20.7866    -1.6114     2.2449 C.3     
  47 C47          -19.9789    -2.4129     1.2569 C.2     
  48 O48          -18.8545    -2.0705     0.9769 O.2     
  49 O49          -20.5085    -3.5072     0.6880 O.3     
  50 C50          -24.0095     2.0030     3.5391 C.2     
  51 O51          -24.2429     1.5956     2.4208 O.2     
  52 N52          -21.8072     1.0287     3.2393 N.am    
  53 C53          -22.6212     1.8786     4.1119 C.3     
  54 C54          -21.9841     3.2661     4.2110 C.3     
  55 C55          -20.5601     3.1358     4.7552 C.3     
  56 O56          -21.9456     3.8663     2.9147 O.3     
  57 C57          -27.1148     3.7370     4.3837 C.2     
  58 O58          -26.5581     4.4638     5.1792 O.2     
  59 N59          -24.9918     2.5670     4.2695 N.am    
  60 C60          -26.3643     2.5900     3.7576 C.3     
  61 C61          -27.0610     1.2734     4.1069 C.3     
  62 C62          -26.3736     0.1216     3.3707 C.3     
  63 C63          -27.0703    -1.1950     3.7201 C.3     
  64 N64          -26.4121    -2.2978     3.0152 N.pl3   
  65 C65          -26.8675    -3.5851     3.1753 C.2     
  66 N66          -27.8847    -3.8244     3.9543 N.2     
  67 N67          -26.2498    -4.6200     2.5138 N.pl3   
  68 C68          -30.6108     4.7688     4.6599 C.2     
  69 O69          -31.0140     3.7252     4.1915 O.2     
  70 N70          -28.4047     3.9552     4.0597 N.am    
  71 C71          -29.1343     5.0703     4.6684 C.3     
  72 C72          -28.8703     6.3487     3.8704 C.3     
  73 C73          -27.3911     6.7236     3.9825 C.3     
  74 C74          -27.1310     7.9828     3.1965 C.2     
  75 O75          -28.0393     8.5268     2.6049 O.2     
  76 N76          -25.8891     8.5044     3.1510 N.am    
  77 C77          -33.6952     6.6569     5.1933 C.2     
  78 O78          -33.1076     7.7175     5.2182 O.2     
  79 N79          -31.4833     5.6588     5.1728 N.am    
  80 C80          -32.9187     5.3657     5.1645 C.3     
  81 C81          -33.2753     4.5286     6.3945 C.3     
  82 C82          -32.5836     3.1669     6.3027 C.3     
  83 C83          -32.9349     2.3424     7.5142 C.2     
  84 O84          -33.6665     2.7988     8.3670 O.2     
  85 N85          -32.4361     1.0977     7.6499 N.am    
  86 C86          -37.1607     7.6415     5.8128 C.2     
  87 O87          -37.4711     6.5270     6.1766 O.2     
  88 N88          -35.0428     6.6330     5.1913 N.am    
  89 C89          -35.7977     7.8883     5.2193 C.3     
  90 C90          -35.9512     8.4229     3.7940 C.3     
  91 C91          -34.5955     8.7852     3.2446 C.ar    
  92 C92          -33.8519     7.8397     2.5629 C.ar    
  93 C93          -32.6086     8.1692     2.0587 C.ar    
  94 C94          -32.1065     9.4502     2.2366 C.ar    
  95 O95          -30.8839     9.7769     1.7412 O.3     
  96 C96          -32.8548    10.3972     2.9206 C.ar    
  97 C97          -34.0997    10.0642     3.4183 C.ar    
  98 C98          -40.3233     9.4639     6.0136 C.2     
  99 O99          -39.9406    10.3239     5.2487 O.2     
 100 N100         -38.0349     8.6595     5.9393 N.am    
 101 C101         -39.3600     8.4197     6.5163 C.3     
 102 C102         -39.2737     8.4976     8.0418 C.3     
 103 C103         -38.3938     7.3591     8.5617 C.3     
 104 C104         -38.3075     7.4370    10.0873 C.3     
 105 N105         -37.4649     6.3468    10.5851 N.pl3   
 106 C106         -37.2404     6.2129    11.9348 C.2     
 107 N107         -36.4908     5.2429    12.3777 N.2     
 108 N108         -37.8067     7.1020    12.8174 N.pl3   
 109 C109         -43.6728    10.6190     6.9134 C.2     
 110 O110         -43.6915     9.9518     7.9260 O.2     
 111 N111         -41.6100     9.4423     6.4140 N.am    
 112 C112         -42.5464    10.4575     5.9254 C.3     
 113 C113         -43.1129    10.0200     4.5731 C.3     
 114 C114         -41.9868     9.9766     3.5383 C.3     
 115 C115         -42.5533     9.5391     2.1861 C.3     
 116 C116         -41.4271     9.4957     1.1513 C.3     
 117 N117         -41.9710     9.0756    -0.1470 N.3     
 118 C118         -46.9710    12.1660     7.0010 C.2     
 119 O119         -46.9365    12.6262     5.8794 O.2     
 120 N120         -44.6594    11.5048     6.6717 N.am    
 121 C121         -45.6948    11.7414     7.6808 C.3     
 122 C122         -45.2339    12.8447     8.6354 C.3     
 123 C123         -46.2365    12.9774     9.7835 C.3     
 124 C124         -46.2184    11.7007    10.6264 C.3     
 125 C125         -45.8539    14.1722    10.6592 C.3     
 126 C126         -50.3948    12.8405     8.0897 C.2     
 127 O127         -50.1193    12.6571     9.2565 O.2     
 128 N128         -48.1506    12.0344     7.6394 N.am    
 129 C129         -49.3793    12.5356     7.0188 C.3     
 130 C130         -49.9412    11.4746     6.0704 C.3     
 131 C131         -48.9638    11.2554     4.9138 C.3     
 132 C132         -49.4642    10.1083     4.0337 C.3     
 133 C133         -48.8667    12.5339     4.0790 C.3     
 134 C134         -53.3479    12.3554     9.1443 C.2     
 135 O135         -53.0858    11.3178     8.5833 O.2     
 136 N136         -51.6092    13.3169     7.7509 N.am    
 137 C137         -52.5964    13.6132     8.7919 C.3     
 138 C138         -53.5790    14.6673     8.2778 C.3     
 139 C139         -52.8361    15.9832     8.0381 C.3     
 140 C140         -53.8187    17.0372     7.5240 C.3     
 141 C141         -53.0758    18.3531     7.2843 C.3     
 142 N142         -54.0193    19.3652     6.7907 N.3     
 143 O143         -54.3085    12.3876    10.0813 O.3     
 144 C144           2.7592     0.6398    10.4859 C.2     
 145 O145           2.4494     0.7052    11.6566 O.2     
 146 C146          20.6389     1.2828    16.0617 C.3     
 147 C147          19.1626     1.2819    16.4637 C.3     
 148 C148          18.2924     1.1911    15.2086 C.3     
 149 C149          16.8161     1.1901    15.6106 C.3     
 150 C150          15.9458     1.0994    14.3555 C.3     
 151 C151          14.4696     1.0984    14.7575 C.3     
 152 C152          13.5993     1.0076    13.5024 C.3     
 153 C153          12.1231     1.0067    13.9044 C.3     
 154 C154          11.2528     0.9159    12.6493 C.3     
 155 C155           9.7765     0.9149    13.0512 C.3     
 156 C156           8.9063     0.8242    11.7961 C.3     
 157 C157           7.4300     0.8232    12.1981 C.3     
 158 C158           6.5597     0.7324    10.9430 C.3     
 159 C159           5.0835     0.7315    11.3450 C.3     
 160 C160           4.2132     0.6407    10.0899 C.3     
 161 H161           2.0507     0.5138     8.6025 H       
 162 H162           0.2696     0.0295    10.8655 H       
 163 H163          -1.1496     2.0066    10.3649 H       
 164 H164           1.7547     2.7878    10.8747 H       
 165 H165           0.3034     3.6813    11.3880 H       
 166 H166           0.6708     2.0937    12.1042 H       
 167 H167          -0.4071     2.3352     8.1185 H       
 168 H168          -2.1058    -0.2653     9.9515 H       
 169 H169          -1.9900    -0.8987     7.0525 H       
 170 H170          -3.4245    -2.4663     9.2437 H       
 171 H171          -3.5227    -2.8066     7.4993 H       
 172 H172          -2.5508    -4.9835     8.7053 H       
 173 H173          -0.8737    -5.0727     8.6584 H       
 174 H174          -4.5699    -1.2115     6.3389 H       
 175 H175          -6.2788     0.6406     7.8143 H       
 176 H176          -4.9248     2.1601     6.3978 H       
 177 H177          -5.3852     1.2252     4.9548 H       
 178 H178          -6.6217     2.1295     5.8613 H       
 179 H179          -8.4565     0.9024     6.2485 H       
 180 H180          -9.4958    -1.7130     6.0115 H       
 181 H181          -8.9948    -1.1599     4.3955 H       
 182 H182         -11.6669    -1.5091     4.4279 H       
 183 H183         -13.0037     0.8663     5.4757 H       
 184 H184         -12.7146     0.3468     2.4831 H       
 185 H185         -13.8396     1.5253     3.1999 H       
 186 H186         -11.9309     2.7068     4.2533 H       
 187 H187         -10.8059     1.5283     3.5365 H       
 188 H188         -11.5528     2.1951     1.2679 H       
 189 H189         -12.6779     3.3735     1.9847 H       
 190 H190         -10.0873     3.8966     2.9807 H       
 191 H191          -9.3013     6.1816     0.4577 H       
 192 H192         -11.9261     3.9766    -0.0370 H       
 193 H193         -11.0527     5.2327    -0.7311 H       
 194 H194         -15.4877     0.7234     4.4403 H       
 195 H195         -16.2389    -2.0546     3.9444 H       
 196 H196         -17.7155    -2.2213     5.8900 H       
 197 H197         -16.0580    -1.8842     6.4445 H       
 198 H198         -17.6540    -0.4399     7.4801 H       
 199 H199         -18.9575    -1.9842     4.0390 H       
 200 H200         -19.4860     0.0941     2.0433 H       
 201 H201         -21.1421    -2.2666     3.0401 H       
 202 H202         -21.6393    -1.1611     1.7367 H       
 203 H203         -19.9522    -3.9888     0.0606 H       
 204 H204         -22.0306     0.9440     2.2992 H       
 205 H205         -22.6765     1.4324     5.1049 H       
 206 H206         -22.5741     3.8897     4.8827 H       
 207 H207         -19.9427     2.6013     4.0331 H       
 208 H208         -20.1436     4.1287     4.9247 H       
 209 H209         -20.5794     2.5845     5.6952 H       
 210 H210         -22.8155     3.9801     2.5080 H       
 211 H211         -24.7900     2.9578     5.1341 H       
 212 H212         -26.3462     2.7154     2.6750 H       
 213 H213         -27.0009     1.1046     5.1821 H       
 214 H214         -28.1071     1.3246     3.8051 H       
 215 H215         -26.4337     0.2904     2.2956 H       
 216 H216         -25.3275     0.0704     3.6726 H       
 217 H217         -27.0102    -1.3637     4.7953 H       
 218 H218         -28.1164    -1.1437     3.4183 H       
 219 H219         -25.6551    -2.1197     2.4355 H       
 220 H220         -28.2060    -4.7326     4.0673 H       
 221 H221         -25.4928    -4.4419     1.9341 H       
 222 H222         -26.5711    -5.5282     2.6268 H       
 223 H223         -28.8500     3.3740     3.4235 H       
 224 H224         -28.7974     5.2073     5.6959 H       
 225 H225         -29.1246     6.1827     2.8236 H       
 226 H226         -29.4815     7.1585     4.2688 H       
 227 H227         -27.1368     6.8896     5.0293 H       
 228 H228         -26.7799     5.9138     3.5841 H       
 229 H229         -25.1627     8.0692     3.6242 H       
 230 H230         -25.7217     9.3149     2.6451 H       
 231 H231         -31.1609     6.4935     5.5474 H       
 232 H232         -33.1709     4.8101     4.2613 H       
 233 H233         -32.9424     5.0453     7.2946 H       
 234 H234         -34.3551     4.3855     6.4360 H       
 235 H235         -32.9166     2.6502     5.4025 H       
 236 H236         -31.5039     3.3100     6.2612 H       
 237 H237         -31.8510     0.7326     6.9678 H       
 238 H238         -32.6623     0.5669     8.4297 H       
 239 H239         -35.5128     5.7848     5.1713 H       
 240 H240         -35.2641     8.6197     5.8262 H       
 241 H241         -36.4050     7.6568     3.1654 H       
 242 H242         -36.5873     9.3080     3.8045 H       
 243 H243         -34.2432     6.8426     2.4247 H       
 244 H244         -32.0279     7.4301     1.5269 H       
 245 H245         -30.9051    10.1238     0.8388 H       
 246 H246         -32.4659    11.3950     3.0607 H       
 247 H247         -34.6845    10.8024     3.9471 H       
 248 H248         -37.7868     9.5509     5.6483 H       
 249 H249         -39.7107     7.4304     6.2223 H       
 250 H250         -38.8397     9.4542     8.3328 H       
 251 H251         -40.2732     8.4077     8.4674 H       
 252 H252         -38.8278     6.4025     8.2708 H       
 253 H253         -37.3943     7.4490     8.1362 H       
 254 H254         -37.8734     8.3936    10.3782 H       
 255 H255         -39.3070     7.3471    10.5128 H       
 256 H256         -37.0654     5.7195     9.9624 H       
 257 H257         -36.3324     5.1484    13.3300 H       
 258 H258         -38.3645     7.8239    12.4878 H       
 259 H259         -37.6483     7.0075    13.7697 H       
 260 H260         -41.9160     8.7545     7.0258 H       
 261 H261         -42.0248    11.4076     5.8105 H       
 262 H262         -43.5570     9.0291     4.6686 H       
 263 H263         -43.8747    10.7301     4.2515 H       
 264 H264         -41.5427    10.9674     3.4428 H       
 265 H265         -41.2249     9.2664     3.8600 H       
 266 H266         -42.9973     8.5482     2.2816 H       
 267 H267         -43.3151    10.2492     1.8644 H       
 268 H268         -40.9830    10.4865     1.0558 H       
 269 H269         -40.6653     8.7855     1.4730 H       
 270 H270         -41.2462     9.0391    -0.8480 H       
 271 H271         -42.4451     8.1882    -0.0705 H       
 272 H272         -44.6838    11.9857     5.8297 H       
 273 H273         -45.8704    10.8244     8.2431 H       
 274 H274         -44.2529    12.5912     9.0371 H       
 275 H275         -45.1724    13.7898     8.0957 H       
 276 H276         -47.2363    13.1302     9.3770 H       
 277 H277         -46.9806    11.7670    11.4028 H       
 278 H278         -46.4234    10.8410     9.9884 H       
 279 H279         -45.2381    11.5844    11.0887 H       
 280 H280         -45.8668    15.0817    10.0586 H       
 281 H281         -46.5681    14.2667    11.4771 H       
 282 H282         -44.8541    14.0194    11.0657 H       
 283 H283         -48.1860    11.6078     8.5098 H       
 284 H284         -49.1588    13.4439     6.4581 H       
 285 H285         -50.0784    10.5389     6.6124 H       
 286 H286         -50.9005    11.8105     5.6767 H       
 287 H287         -47.9802    11.0057     5.3117 H       
 288 H288         -50.4478    10.3581     3.6358 H       
 289 H289         -48.7679     9.9522     3.2097 H       
 290 H290         -49.5334     9.1975     4.6284 H       
 291 H291         -49.8503    12.7836     3.6811 H       
 292 H292         -48.5102    13.3511     4.7060 H       
 293 H293         -48.1704    12.3778     3.2550 H       
 294 H294         -51.8296    13.4635     6.8177 H       
 295 H295         -52.0873    13.9925     9.6780 H       
 296 H296         -54.0227    14.3250     7.3429 H       
 297 H297         -54.3646    14.8230     9.0173 H       
 298 H298         -52.3924    16.3254     8.9731 H       
 299 H299         -52.0506    15.8274     7.2987 H       
 300 H300         -54.2624    16.6950     6.5891 H       
 301 H301         -54.6043    17.1930     8.2634 H       
 302 H302         -52.6321    18.6954     8.2192 H       
 303 H303         -52.2903    18.1974     6.5449 H       
 304 H304         -54.7920    19.4811     7.4291 H       
 305 H305         -53.5525    20.2441     6.6246 H       
 306 H306         -54.7628    11.5558    10.2731 H       
 307 H307          20.8699     0.3626    15.5251 H       
 308 H308          20.8395     2.1391    15.4177 H       
 309 H309          21.2589     1.3475    16.9559 H       
 310 H310          18.9620     0.4256    17.1077 H       
 311 H311          18.9316     2.2021    17.0003 H       
 312 H312          18.4930     2.0473    14.5646 H       
 313 H313          18.5234     0.2709    14.6720 H       
 314 H314          16.6155     0.3339    16.2545 H       
 315 H315          16.5851     2.1103    16.1472 H       
 316 H316          16.1465     1.9556    13.7115 H       
 317 H317          16.1769     0.1792    13.8189 H       
 318 H318          14.2689     0.2422    15.4014 H       
 319 H319          14.2385     2.0186    15.2940 H       
 320 H320          13.8000     1.8639    12.8584 H       
 321 H321          13.8304     0.0874    12.9658 H       
 322 H322          11.9224     0.1504    14.5483 H       
 323 H323          11.8920     1.9269    14.4409 H       
 324 H324          11.4534     1.7721    12.0053 H       
 325 H325          11.4838    -0.0043    12.1127 H       
 326 H326           9.5759     0.0587    13.6952 H       
 327 H327           9.5455     1.8352    13.5878 H       
 328 H328           9.1069     1.6804    11.1522 H       
 329 H329           9.1373    -0.0960    11.2596 H       
 330 H330           7.2294    -0.0330    12.8421 H       
 331 H331           7.1990     1.7434    12.7347 H       
 332 H332           6.7604     1.5887    10.2991 H       
 333 H333           6.7908    -0.1878    10.4064 H       
 334 H334           4.8828    -0.1248    11.9890 H       
 335 H335           4.8524     1.6517    11.8816 H       
 336 H336           4.4443    -0.2795     9.5533 H       
 337 H337           4.4139     1.4969     9.4459 H       
@<TRIPOS>BOND
   1    1    2 2
   2    1    4 1
   3    1   10 am
   4    3  144 am
   5    3    4 1
   6    3  161 1
   7    4    5 1
   8    4  162 1
   9    5    6 1
  10    5    7 1
  11    5  163 1
  12    6  164 1
  13    6  165 1
  14    6  166 1
  15    7  167 1
  16    8    9 2
  17    8   11 1
  18    8   18 am
  19   10   11 1
  20   10  168 1
  21   11   12 1
  22   11  169 1
  23   12   13 1
  24   12  170 1
  25   12  171 1
  26   13   14 2
  27   13   15 am
  28   15  172 1
  29   15  173 1
  30   16   17 2
  31   16   19 1
  32   16   23 am
  33   18   19 1
  34   18  174 1
  35   19   20 1
  36   19  175 1
  37   20  176 1
  38   20  177 1
  39   20  178 1
  40   21   22 2
  41   21   24 1
  42   21   27 am
  43   23   24 1
  44   23  179 1
  45   24  180 1
  46   24  181 1
  47   25   26 2
  48   25   28 1
  49   25   38 am
  50   27   28 1
  51   27  182 1
  52   28   29 1
  53   28  183 1
  54   29   30 1
  55   29  184 1
  56   29  185 1
  57   30   31 1
  58   30  186 1
  59   30  187 1
  60   31   32 1
  61   31  188 1
  62   31  189 1
  63   32   33 1
  64   32  190 1
  65   33   34 2
  66   33   35 1
  67   34  191 1
  68   35  192 1
  69   35  193 1
  70   36   37 2
  71   36   39 1
  72   36   44 am
  73   38   39 1
  74   38  194 1
  75   39   40 1
  76   39  195 1
  77   40   41 1
  78   40  196 1
  79   40  197 1
  80   41  198 1
  81   42   43 2
  82   42   45 1
  83   42   52 am
  84   44   45 1
  85   44  199 1
  86   45   46 1
  87   45  200 1
  88   46   47 1
  89   46  201 1
  90   46  202 1
  91   47   48 2
  92   47   49 1
  93   49  203 1
  94   50   51 2
  95   50   53 1
  96   50   59 am
  97   52   53 1
  98   52  204 1
  99   53   54 1
 100   53  205 1
 101   54   55 1
 102   54   56 1
 103   54  206 1
 104   55  207 1
 105   55  208 1
 106   55  209 1
 107   56  210 1
 108   57   58 2
 109   57   60 1
 110   57   70 am
 111   59   60 1
 112   59  211 1
 113   60   61 1
 114   60  212 1
 115   61   62 1
 116   61  213 1
 117   61  214 1
 118   62   63 1
 119   62  215 1
 120   62  216 1
 121   63   64 1
 122   63  217 1
 123   63  218 1
 124   64   65 1
 125   64  219 1
 126   65   66 2
 127   65   67 1
 128   66  220 1
 129   67  221 1
 130   67  222 1
 131   68   69 2
 132   68   71 1
 133   68   79 am
 134   70   71 1
 135   70  223 1
 136   71   72 1
 137   71  224 1
 138   72   73 1
 139   72  225 1
 140   72  226 1
 141   73   74 1
 142   73  227 1
 143   73  228 1
 144   74   75 2
 145   74   76 am
 146   76  229 1
 147   76  230 1
 148   77   78 2
 149   77   80 1
 150   77   88 am
 151   79   80 1
 152   79  231 1
 153   80   81 1
 154   80  232 1
 155   81   82 1
 156   81  233 1
 157   81  234 1
 158   82   83 1
 159   82  235 1
 160   82  236 1
 161   83   84 2
 162   83   85 am
 163   85  237 1
 164   85  238 1
 165   86   87 2
 166   86   89 1
 167   86  100 am
 168   88   89 1
 169   88  239 1
 170   89   90 1
 171   89  240 1
 172   90   91 1
 173   90  241 1
 174   90  242 1
 175   91   92 ar
 176   91   97 ar
 177   92   93 ar
 178   92  243 1
 179   93   94 ar
 180   93  244 1
 181   94   95 1
 182   94   96 ar
 183   95  245 1
 184   96   97 ar
 185   96  246 1
 186   97  247 1
 187   98   99 2
 188   98  101 1
 189   98  111 am
 190  100  101 1
 191  100  248 1
 192  101  102 1
 193  101  249 1
 194  102  103 1
 195  102  250 1
 196  102  251 1
 197  103  104 1
 198  103  252 1
 199  103  253 1
 200  104  105 1
 201  104  254 1
 202  104  255 1
 203  105  106 1
 204  105  256 1
 205  106  107 2
 206  106  108 1
 207  107  257 1
 208  108  258 1
 209  108  259 1
 210  109  110 2
 211  109  112 1
 212  109  120 am
 213  111  112 1
 214  111  260 1
 215  112  113 1
 216  112  261 1
 217  113  114 1
 218  113  262 1
 219  113  263 1
 220  114  115 1
 221  114  264 1
 222  114  265 1
 223  115  116 1
 224  115  266 1
 225  115  267 1
 226  116  117 1
 227  116  268 1
 228  116  269 1
 229  117  270 1
 230  117  271 1
 231  118  119 2
 232  118  121 1
 233  118  128 am
 234  120  121 1
 235  120  272 1
 236  121  122 1
 237  121  273 1
 238  122  123 1
 239  122  274 1
 240  122  275 1
 241  123  124 1
 242  123  125 1
 243  123  276 1
 244  124  277 1
 245  124  278 1
 246  124  279 1
 247  125  280 1
 248  125  281 1
 249  125  282 1
 250  126  127 2
 251  126  129 1
 252  126  136 am
 253  128  129 1
 254  128  283 1
 255  129  130 1
 256  129  284 1
 257  130  131 1
 258  130  285 1
 259  130  286 1
 260  131  132 1
 261  131  133 1
 262  131  287 1
 263  132  288 1
 264  132  289 1
 265  132  290 1
 266  133  291 1
 267  133  292 1
 268  133  293 1
 269  134  135 2
 270  134  137 1
 271  134  143 1
 272  136  137 1
 273  136  294 1
 274  137  138 1
 275  137  295 1
 276  138  139 1
 277  138  296 1
 278  138  297 1
 279  139  140 1
 280  139  298 1
 281  139  299 1
 282  140  141 1
 283  140  300 1
 284  140  301 1
 285  141  142 1
 286  141  302 1
 287  141  303 1
 288  142  304 1
 289  142  305 1
 290  143  306 1
 291  144  145 2
 292  144  160 1
 293  146  147 1
 294  146  307 1
 295  146  308 1
 296  146  309 1
 297  147  148 1
 298  147  310 1
 299  147  311 1
 300  148  149 1
 301  148  312 1
 302  148  313 1
 303  149  150 1
 304  149  314 1
 305  149  315 1
 306  150  151 1
 307  150  316 1
 308  150  317 1
 309  151  152 1
 310  151  318 1
 311  151  319 1
 312  152  153 1
 313  152  320 1
 314  152  321 1
 315  153  154 1
 316  153  322 1
 317  153  323 1
 318  154  155 1
 319  154  324 1
 320  154  325 1
 321  155  156 1
 322  155  326 1
 323  155  327 1
 324  156  157 1
 325  156  328 1
 326  156  329 1
 327  157  158 1
 328  157  330 1
 329  157  331 1
 330  158  159 1
 331  158  332 1
 332  158  333 1
 333  159  160 1
 334  159  334 1
 335  159  335 1
 336  160  336 1
 337  160  337 1

#	End of record

