#	Name: ASD01883498
#	Creating user name:	WinNT
#	Creation time:	15. 06. 2019 19:46

#	Modifying user name:	WinNT
#	Modification time:	15. 06. 2019 19:46

#	Program:	/corina/corina34_cracker 3.40 0067  02.08.2006

@<TRIPOS>MOLECULE
ASD01883498
  65   68    0    0    0
SMALL
NO_CHARGES


@<TRIPOS>ATOM
   1 N1             0.0020     1.3083    -0.0152 N.am    
   2 C2            -0.7503     1.3803     1.0985 C.2     
   3 C3            -1.9982     0.7154     1.1511 C.2     
   4 C4            -2.4239    -0.0108     0.0261 C.2     
   5 C5            -1.5927    -0.0486    -1.1088 C.2     
   6 C6            -0.4132     0.6100    -1.1040 C.2     
   7 O7            -0.3569     2.0172     2.0610 O.2     
   8 C8            -2.8113     0.7810     2.3281 C.1     
   9 N9            -3.4562     0.8330     3.2618 N.1     
  10 C10            1.2918     2.0019    -0.0563 C.3     
  11 C11            2.3915     1.0638     0.4452 C.3     
  12 C12            3.7385     1.7881     0.4023 C.3     
  13 C13            4.8173     0.8957     1.0192 C.3     
  14 C14            4.1038     2.1000    -1.0504 C.3     
  15 N15           -3.6309    -0.6732     0.0341 N.pl3   
  16 C16           -4.8893     0.0735     0.1609 C.3     
  17 C17           -5.7950    -0.2814    -1.0244 C.3     
  18 C18           -5.9210    -1.8000    -1.1201 C.3     
  19 C19           -4.5759    -2.5061    -1.2716 C.3     
  20 C20           -3.6785    -2.1359    -0.0903 C.3     
  21 C21           -6.8160    -2.4111    -0.0330 C.3     
  22 N22           -7.3645    -3.2665    -1.1096 N.3     
  23 C23           -6.9776    -2.2668    -2.1307 C.3     
  24 C24           -8.8258    -3.3731    -1.0044 C.3     
  25 C25           -9.3713    -4.0384    -2.2416 C.ar    
  26 C26           -9.5057    -5.4133    -2.2848 C.ar    
  27 C27          -10.0062    -6.0237    -3.4199 C.ar    
  28 C28          -10.3725    -5.2589    -4.5114 C.ar    
  29 C29          -10.2389    -3.8835    -4.4679 C.ar    
  30 C30           -9.7427    -3.2730    -3.3315 C.ar    
  31 C31          -10.1517    -7.5229    -3.4673 C.3     
  32 F32          -11.4196    -7.8834    -2.9985 F       
  33 F33           -9.9991    -7.9648    -4.7859 F       
  34 F34           -9.1717    -8.1123    -2.6615 F       
  35 H35           -1.8994    -0.6008    -1.9848 H       
  36 H36            0.2163     0.5738    -1.9808 H       
  37 H37            1.5101     2.3026    -1.0810 H       
  38 H38            1.2496     2.8855     0.5805 H       
  39 H39            2.1732     0.7630     1.4699 H       
  40 H40            2.4337     0.1802    -0.1917 H       
  41 H41            3.6693     2.7178     0.9671 H       
  42 H42            4.8866    -0.0340     0.4543 H       
  43 H43            5.7770     1.4117     0.9886 H       
  44 H44            4.5571     0.6735     2.0541 H       
  45 H45            3.3352     2.7358    -1.4898 H       
  46 H46            5.0635     2.6160    -1.0809 H       
  47 H47            4.1731     1.1703    -1.6152 H       
  48 H48           -5.3838    -0.1994     1.0932 H       
  49 H49           -4.6816     1.1436     0.1546 H       
  50 H50           -6.7813     0.1573    -0.8736 H       
  51 H51           -5.3592     0.1068    -1.9450 H       
  52 H52           -4.7306    -3.5849    -1.2893 H       
  53 H53           -4.1008    -2.1898    -2.2002 H       
  54 H54           -2.6735    -2.5223    -0.2597 H       
  55 H55           -4.0865    -2.5622     0.8262 H       
  56 H56           -6.2666    -2.9628     0.7299 H       
  57 H57           -7.5403    -1.7116     0.3846 H       
  58 H58           -7.7496    -1.5246    -2.3338 H       
  59 H59           -6.5568    -2.7037    -3.0363 H       
  60 H60           -9.0846    -3.9675    -0.1281 H       
  61 H61           -9.2568    -2.3766    -0.9077 H       
  62 H62           -9.2195    -6.0109    -1.4319 H       
  63 H63          -10.7627    -5.7358    -5.3983 H       
  64 H64          -10.5248    -3.2860    -5.3208 H       
  65 H65           -9.6384    -2.1986    -3.2975 H       
@<TRIPOS>BOND
   1    1    2 am
   2    1   10 1
   3    1    6 1
   4    2    3 1
   5    2    7 2
   6    3    4 2
   7    3    8 1
   8    4    5 1
   9    4   15 1
  10    5    6 2
  11    5   35 1
  12    6   36 1
  13    8    9 3
  14   10   11 1
  15   10   37 1
  16   10   38 1
  17   11   12 1
  18   11   39 1
  19   11   40 1
  20   12   13 1
  21   12   14 1
  22   12   41 1
  23   13   42 1
  24   13   43 1
  25   13   44 1
  26   14   45 1
  27   14   46 1
  28   14   47 1
  29   15   16 1
  30   15   20 1
  31   16   17 1
  32   16   48 1
  33   16   49 1
  34   17   18 1
  35   17   50 1
  36   17   51 1
  37   18   19 1
  38   18   21 1
  39   18   23 1
  40   19   20 1
  41   19   52 1
  42   19   53 1
  43   20   54 1
  44   20   55 1
  45   21   22 1
  46   21   56 1
  47   21   57 1
  48   22   23 1
  49   22   24 1
  50   23   58 1
  51   23   59 1
  52   24   25 1
  53   24   60 1
  54   24   61 1
  55   25   26 ar
  56   25   30 ar
  57   26   27 ar
  58   26   62 1
  59   27   28 ar
  60   27   31 1
  61   28   29 ar
  62   28   63 1
  63   29   30 ar
  64   29   64 1
  65   30   65 1
  66   31   32 1
  67   31   33 1
  68   31   34 1

#	End of record

