#	Name: ASD02038588
#	Creating user name:	WinNT
#	Creation time:	15. 06. 2019 20:17

#	Modifying user name:	WinNT
#	Modification time:	15. 06. 2019 20:17

#	Program:	/corina/corina34_cracker 3.40 0067  02.08.2006

@<TRIPOS>MOLECULE
ASD02038588
  60   63    0    0    0
SMALL
NO_CHARGES


@<TRIPOS>ATOM
   1 N1            -0.0293     1.4646     0.0049 N.3     
   2 C2             0.0021    -0.0041     0.0020 C.3     
   3 C3             1.3310     2.0205     0.0044 C.3     
   4 C4             0.6061    -0.4987    -1.3138 C.3     
   5 C5             0.7419    -2.0221    -1.2718 C.3     
   6 O6             1.4118    -2.4732    -2.4507 O.3     
   7 C7             1.6145    -3.8122    -2.5713 C.ar    
   8 C8             1.1740    -4.6728    -1.5689 C.ar    
   9 C9             1.3706    -6.0322    -1.6741 C.ar    
  10 C10            2.0146    -6.5566    -2.7895 C.ar    
  11 C11            2.4615    -5.6904    -3.8052 C.ar    
  12 C12            2.2510    -4.3126    -3.6896 C.ar    
  13 O13           -0.2461    -0.1262    -2.3988 O.3     
  14 C14            1.2554     3.5471    -0.0728 C.3     
  15 N15            0.4824     4.0551     1.0691 N.3     
  16 C16           -0.8780     3.4993     1.0695 C.3     
  17 C17           -0.8024     1.9726     1.1468 C.3     
  18 C18            0.4524     5.4542     1.0718 C.ar    
  19 C19           -0.0188     6.1412    -0.0392 C.ar    
  20 C20           -0.0479     7.5219    -0.0356 C.ar    
  21 C21            0.3937     8.2225     1.0770 C.ar    
  22 C22            0.8650     7.5371     2.1870 C.ar    
  23 C23            0.8886     6.1562     2.1877 C.ar    
  24 O24            0.3651     9.5822     1.0795 O.3     
  25 N25            2.2216    -7.9156    -2.9134 N.am    
  26 C26            2.8443    -8.4250    -3.9905 C.2     
  27 C27            3.3114    -7.5995    -5.0355 C.2     
  28 O28            3.0099    -9.6303    -4.0663 O.2     
  29 C29            3.1384    -6.2561    -4.9738 C.2     
  30 C30           -2.2160     1.3888     1.1065 C.3     
  31 C31            0.8349    10.2388     2.2585 C.3     
  32 F32            2.1708     9.8906     2.4853 F       
  33 F33            0.7361    11.6243     2.0914 F       
  34 F34            0.0579     9.8445     3.3530 F       
  35 H35            0.6097    -0.3561     0.8357 H       
  36 H36           -1.0125    -0.3894     0.1036 H       
  37 H37            1.8438     1.7277     0.9206 H       
  38 H38            1.8793     1.6395    -0.8572 H       
  39 H39            1.5895    -0.0499    -1.4536 H       
  40 H40            1.3184    -2.3113    -0.3931 H       
  41 H41           -0.2487    -2.4739    -1.2214 H       
  42 H42            0.6736    -4.2705    -0.7004 H       
  43 H43            1.0252    -6.6903    -0.8905 H       
  44 H44            2.5918    -3.6437    -4.4659 H       
  45 H45           -1.1397    -0.4909    -2.3402 H       
  46 H46            2.2625     3.9631    -0.0441 H       
  47 H47            0.7668     3.8405    -1.0020 H       
  48 H48           -1.4263     3.8803     1.9311 H       
  49 H49           -1.3908     3.7921     0.1533 H       
  50 H50           -0.3138     1.6793     2.0760 H       
  51 H51           -0.3620     5.5958    -0.9059 H       
  52 H52           -0.4144     8.0564    -0.8996 H       
  53 H53            1.2090     8.0834     3.0528 H       
  54 H54            1.2552     5.6227     3.0522 H       
  55 H55            1.9137    -8.5118    -2.2129 H       
  56 H56            3.8085    -8.0394    -5.8874 H       
  57 H57            3.4924    -5.6171    -5.7693 H       
  58 H58           -2.7037     1.6816     0.1767 H       
  59 H59           -2.1618     0.3015     1.1615 H       
  60 H60           -2.7897     1.7673     1.9525 H       
@<TRIPOS>BOND
   1    1    2 1
   2    1    3 1
   3    1   17 1
   4    2    4 1
   5    2   35 1
   6    2   36 1
   7    3   14 1
   8    3   37 1
   9    3   38 1
  10    4    5 1
  11    4   13 1
  12    4   39 1
  13    5    6 1
  14    5   40 1
  15    5   41 1
  16    6    7 1
  17    7    8 ar
  18    7   12 ar
  19    8    9 ar
  20    8   42 1
  21    9   10 ar
  22    9   43 1
  23   10   11 ar
  24   10   25 1
  25   11   12 ar
  26   11   29 1
  27   12   44 1
  28   13   45 1
  29   14   15 1
  30   14   46 1
  31   14   47 1
  32   15   16 1
  33   15   18 1
  34   16   17 1
  35   16   48 1
  36   16   49 1
  37   17   30 1
  38   17   50 1
  39   18   19 ar
  40   18   23 ar
  41   19   20 ar
  42   19   51 1
  43   20   21 ar
  44   20   52 1
  45   21   22 ar
  46   21   24 1
  47   22   23 ar
  48   22   53 1
  49   23   54 1
  50   24   31 1
  51   25   26 am
  52   25   55 1
  53   26   27 1
  54   26   28 2
  55   27   29 2
  56   27   56 1
  57   29   57 1
  58   30   58 1
  59   30   59 1
  60   30   60 1
  61   31   32 1
  62   31   33 1
  63   31   34 1

#	End of record

