#	Name: ASD05300015
#	Creating user name:	WinNT
#	Creation time:	15. 06. 2019 20:58

#	Modifying user name:	WinNT
#	Modification time:	15. 06. 2019 20:58

#	Program:	/corina/corina34_cracker 3.40 0067  02.08.2006

@<TRIPOS>MOLECULE
ASD05300015
  48   51    0    0    0
SMALL
NO_CHARGES


@<TRIPOS>ATOM
   1 C1            -0.0178     1.4648     0.0101 C.3     
   2 N2             0.0021    -0.0041     0.0020 N.3     
   3 C3             0.7059    -0.5273     1.1798 C.3     
   4 C4             0.8343    -2.0480     1.0652 C.3     
   5 C5            -0.5626    -2.6671     0.9654 C.3     
   6 C6            -1.2921    -2.0696    -0.2410 C.3     
   7 C7            -1.3588    -0.5483    -0.0886 C.3     
   8 N8            -0.4443    -4.1176     0.7969 N.am    
   9 C9            -1.4536    -4.9249     1.1792 C.2     
  10 O10           -2.4597    -4.4506     1.6626 O.2     
  11 N11           -1.3448    -6.2593     1.0242 N.am    
  12 C12           -2.3556    -7.0707     1.4068 C.2     
  13 C13           -3.6016    -6.9521     0.7880 C.2     
  14 C14           -4.6435    -7.8076     1.1411 C.2     
  15 C15           -4.4369    -8.7911     2.1079 C.2     
  16 C16           -3.1965    -8.9039     2.7318 C.2     
  17 C17           -2.1576    -8.0307     2.3967 C.2     
  18 C18           -0.8907    -8.1079     3.1290 C.2     
  19 C19            0.2895    -7.9411     2.6263 C.2     
  20 C20            0.5856    -7.6491     1.2195 C.2     
  21 C21           -0.2275    -6.7892     0.4808 C.2     
  22 C22            0.1140    -6.4680    -0.8359 C.2     
  23 C23            1.2389    -7.0396    -1.4269 C.2     
  24 C24            2.0259    -7.9348    -0.7030 C.2     
  25 C25            1.6990    -8.2405     0.6164 C.2     
  26 H26            1.0047     1.8421     0.0024 H       
  27 H27           -0.5450     1.8259    -0.8730 H       
  28 H28           -0.5280     1.8163     0.9069 H       
  29 H29            1.6993    -0.0823     1.2367 H       
  30 H30            0.1439    -0.2771     2.0796 H       
  31 H31            1.4080    -2.2985     0.1729 H       
  32 H32            1.3429    -2.4377     1.9470 H       
  33 H33           -1.1233    -2.4496     1.8745 H       
  34 H34           -0.7518    -2.3205    -1.1539 H       
  35 H35           -2.3027    -2.4749    -0.2925 H       
  36 H36           -1.9111    -0.2980     0.8172 H       
  37 H37           -1.8650    -0.1186    -0.9529 H       
  38 H38            0.3603    -4.4969     0.4102 H       
  39 H39           -3.7584    -6.1951     0.0339 H       
  40 H40           -5.6090    -7.7088     0.6672 H       
  41 H41           -5.2383    -9.4648     2.3731 H       
  42 H42           -3.0370    -9.6687     3.4775 H       
  43 H43           -0.9475    -8.3237     4.1857 H       
  44 H44            1.1292    -8.0235     3.3005 H       
  45 H45           -0.4958    -5.7753    -1.3968 H       
  46 H46            1.5008    -6.7900    -2.4445 H       
  47 H47            2.8883    -8.3925    -1.1648 H       
  48 H48            2.3094    -8.9340     1.1757 H       
@<TRIPOS>BOND
   1    1    2 1
   2    1   26 1
   3    1   27 1
   4    1   28 1
   5    2    3 1
   6    2    7 1
   7    3    4 1
   8    3   29 1
   9    3   30 1
  10    4    5 1
  11    4   31 1
  12    4   32 1
  13    5    6 1
  14    5    8 1
  15    5   33 1
  16    6    7 1
  17    6   34 1
  18    6   35 1
  19    7   36 1
  20    7   37 1
  21    8    9 am
  22    8   38 1
  23    9   10 2
  24    9   11 am
  25   11   12 1
  26   11   21 1
  27   12   13 2
  28   12   17 1
  29   13   14 1
  30   13   39 1
  31   14   15 2
  32   14   40 1
  33   15   16 1
  34   15   41 1
  35   16   17 2
  36   16   42 1
  37   17   18 1
  38   18   19 2
  39   18   43 1
  40   19   20 1
  41   19   44 1
  42   20   21 2
  43   20   25 1
  44   21   22 1
  45   22   23 2
  46   22   45 1
  47   23   24 1
  48   23   46 1
  49   24   25 2
  50   24   47 1
  51   25   48 1

#	End of record

