#	Name: ASD06020029
#	Creating user name:	WinNT
#	Creation time:	15. 06. 2019 21:04

#	Modifying user name:	WinNT
#	Modification time:	15. 06. 2019 21:04

#	Program:	/corina/corina34_cracker 3.40 0067  02.08.2006

@<TRIPOS>MOLECULE
ASD06020029
  33   36    0    0    0
SMALL
NO_CHARGES


@<TRIPOS>ATOM
   1 C1            -0.0166     1.3952     0.0025 C.ar    
   2 C2             0.0031    -0.0035     0.0023 C.ar    
   3 C3             1.2299    -0.6764    -0.0204 C.ar    
   4 C4             2.4026     0.1209    -0.0423 C.ar    
   5 C5             2.2924     1.4756    -0.0404 C.ar    
   6 N6             1.1144     2.0790    -0.0186 N.ar    
   7 S7            -1.2859    -1.2018     0.0264 S.3     
   8 C8            -0.0955    -2.4967     0.0044 C.2     
   9 N9             1.1001    -2.0038    -0.0179 N.2     
  10 N10           -1.2335     2.0703     0.0191 N.pl3   
  11 C11           -1.2583     3.4567     0.1318 C.ar    
  12 C12           -2.4666     4.1437     0.0370 C.ar    
  13 N13           -0.1322     4.1278     0.3352 N.ar    
  14 N14           -2.4856     5.4584     0.1444 N.ar    
  15 C15           -1.3596     6.1239     0.3417 C.ar    
  16 C16           -0.1599     5.4455     0.4417 C.ar    
  17 C17           -0.4154    -3.9394     0.0105 C.ar    
  18 C18            0.6115    -4.8862    -0.0085 C.ar    
  19 C19            0.3053    -6.2324    -0.0027 C.ar    
  20 C20           -1.0151    -6.6455     0.0214 C.ar    
  21 C21           -2.0377    -5.7151     0.0398 C.ar    
  22 C22           -1.7467    -4.3634     0.0410 C.ar    
  23 F23           -2.7466    -3.4552     0.0656 F       
  24 Cl24           2.2691    -4.3712    -0.0399 Cl      
  25 H25            3.3767    -0.3453    -0.0600 H       
  26 H26            3.1901     2.0758    -0.0572 H       
  27 H27           -2.0643     1.5741    -0.0478 H       
  28 H28           -3.3862     3.6009    -0.1245 H       
  29 H29           -1.3784     7.2002     0.4288 H       
  30 H30            0.7565     5.9924     0.6077 H       
  31 H31            1.0985    -6.9651    -0.0174 H       
  32 H32           -1.2481    -7.7001     0.0254 H       
  33 H33           -3.0660    -6.0449     0.0582 H       
@<TRIPOS>BOND
   1    1    2 ar
   2    1    6 ar
   3    1   10 1
   4    2    3 ar
   5    2    7 1
   6    3    4 ar
   7    3    9 1
   8    4    5 ar
   9    4   25 1
  10    5    6 ar
  11    5   26 1
  12    7    8 1
  13    8    9 2
  14    8   17 1
  15   10   11 1
  16   10   27 1
  17   11   12 ar
  18   11   13 ar
  19   12   14 ar
  20   12   28 1
  21   13   16 ar
  22   14   15 ar
  23   15   16 ar
  24   15   29 1
  25   16   30 1
  26   17   18 ar
  27   17   22 ar
  28   18   19 ar
  29   18   24 1
  30   19   20 ar
  31   19   31 1
  32   20   21 ar
  33   20   32 1
  34   21   22 ar
  35   21   33 1
  36   22   23 1

#	End of record

