#	Name: ASD01918151
#	Creating user name:	WinNT
#	Creation time:	15. 06. 2019 20:10

#	Modifying user name:	WinNT
#	Modification time:	15. 06. 2019 20:10

#	Program:	/corina/corina34_cracker 3.40 0067  02.08.2006

@<TRIPOS>MOLECULE
ASD01918151
  37   40    0    0    0
SMALL
NO_CHARGES


@<TRIPOS>ATOM
   1 N1             5.1505     1.7609    -3.1692 N.ar    
   2 C2             5.3136     0.4549    -3.2510 C.ar    
   3 C3             4.8658    -0.3812    -2.2430 C.ar    
   4 C4             4.2375     0.1720    -1.1340 C.ar    
   5 C5             4.0838     1.5561    -1.0834 C.ar    
   6 C6             4.5595     2.3251    -2.1339 C.ar    
   7 O7             3.4752     2.1437    -0.0192 O.3     
   8 C8             3.4533     3.5026     0.0336 C.2     
   9 N9             2.1985     5.5131    -0.0268 N.pl3   
  10 C10            2.2691     4.1574    -0.0740 C.2     
  11 C11            4.6516     4.2062     0.2039 C.2     
  12 C12            4.6209     5.5953     0.2574 C.2     
  13 C13            3.3271     6.2660     0.1323 C.2     
  14 C14            5.8595     6.3715     0.4359 C.2     
  15 N15            5.8101     7.7174     0.4854 N.am    
  16 O16            6.9272     5.7979     0.5387 O.2     
  17 N17            1.1338     6.4222    -0.1106 N.2     
  18 C18            1.6460     7.6258    -0.0095 C.2     
  19 N19            2.9614     7.5382     0.1419 N.2     
  20 C20            6.9782     8.4495     0.6538 C.2     
  21 F21            5.0369    -1.7181    -2.3364 F       
  22 F22            3.7866    -0.6121    -0.1304 F       
  23 S23            8.5419     7.7761     0.8106 S.3     
  24 C24            9.2334     9.3897     0.9586 C.2     
  25 C25            8.2385    10.2753     0.8776 C.2     
  26 N26            7.0424     9.7432     0.7093 N.2     
  27 C27            8.4631    11.7629     0.9661 C.3     
  28 H28            5.8029     0.0321    -4.1160 H       
  29 H29            4.4452     3.3987    -2.1041 H       
  30 H30            1.3610     3.5866    -0.2005 H       
  31 H31            5.5885     3.6764     0.2931 H       
  32 H32            4.9586     8.1749     0.4034 H       
  33 H33            1.0825     8.5467    -0.0375 H       
  34 H34           10.2798     9.6216     1.0919 H       
  35 H35            8.6380    12.1639    -0.0323 H       
  36 H36            7.5831    12.2380     1.3995 H       
  37 H37            9.3307    11.9626     1.5950 H       
@<TRIPOS>BOND
   1    1    2 ar
   2    1    6 ar
   3    2    3 ar
   4    2   28 1
   5    3    4 ar
   6    3   21 1
   7    4    5 ar
   8    4   22 1
   9    5    6 ar
  10    5    7 1
  11    6   29 1
  12    7    8 1
  13    8   11 1
  14    8   10 2
  15    9   10 1
  16    9   17 1
  17    9   13 1
  18   10   30 1
  19   11   12 2
  20   11   31 1
  21   12   13 1
  22   12   14 1
  23   13   19 2
  24   14   15 am
  25   14   16 2
  26   15   20 1
  27   15   32 1
  28   17   18 2
  29   18   19 1
  30   18   33 1
  31   20   23 1
  32   20   26 2
  33   23   24 1
  34   24   25 2
  35   24   34 1
  36   25   26 1
  37   25   27 1
  38   27   35 1
  39   27   36 1
  40   27   37 1

#	End of record

