#	Name: ASD01152246
#	Creating user name:	WinNT
#	Creation time:	15. 06. 2019 19:05

#	Modifying user name:	WinNT
#	Modification time:	15. 06. 2019 19:05

#	Program:	/corina/corina34_cracker 3.40 0067  02.08.2006

@<TRIPOS>MOLECULE
ASD01152246
  44   46    0    0    0
SMALL
NO_CHARGES


@<TRIPOS>ATOM
   1 C1            -1.9378    -1.9572     2.0074 C.2     
   2 C2            -0.9256    -1.6633     0.9676 C.ar    
   3 C3             0.2851    -2.3534     0.9559 C.ar    
   4 C4             1.2285    -2.0730    -0.0209 C.ar    
   5 C5             0.9648    -1.1060    -0.9842 C.ar    
   6 C6            -0.2358    -0.4221    -0.9720 C.ar    
   7 C7            -1.1833    -0.6988    -0.0067 C.ar    
   8 N8            -1.6978    -2.8605     2.9117 N.2     
   9 N9            -3.1377    -1.2662     2.0205 N.pl3   
  10 O10           -2.6658    -3.1416     3.9062 O.3     
  11 N11            3.6433    -2.0468    -0.1508 N.2     
  12 N12            2.4459    -2.7629    -0.0366 N.am    
  13 C13            2.4488    -4.1042     0.0585 C.2     
  14 N14            3.6013    -4.7995     0.0474 N.am    
  15 C15            4.7801    -4.1522    -0.0609 C.2     
  16 C16            4.7837    -2.6852    -0.1658 C.2     
  17 O17            5.8263    -4.7737    -0.0712 O.2     
  18 O18            1.3926    -4.6989     0.1566 O.2     
  19 O19            5.9540    -2.0043    -0.2764 O.3     
  20 C20            5.8699    -0.5811    -0.3735 C.3     
  21 C21            3.5757    -6.2604     0.1536 C.3     
  22 C22            3.4921    -6.8629    -1.2253 C.ar    
  23 C23            4.6493    -7.1645    -1.9188 C.ar    
  24 C24            4.5732    -7.7170    -3.1834 C.ar    
  25 C25            3.3387    -7.9682    -3.7552 C.ar    
  26 C26            2.1809    -7.6661    -3.0606 C.ar    
  27 C27            2.2582    -7.1188    -1.7937 C.ar    
  28 Cl28           3.2424    -8.6617    -5.3437 Cl      
  29 H29            0.4881    -3.1040     1.7054 H       
  30 H30            1.7007    -0.8884    -1.7441 H       
  31 H31           -0.4355     0.3282    -1.7228 H       
  32 H32           -2.1223    -0.1653    -0.0032 H       
  33 H33           -3.3151    -0.5896     1.3484 H       
  34 H34           -3.8008    -1.4588     2.7017 H       
  35 H35           -2.3977    -3.8270     4.5335 H       
  36 H36            6.8730    -0.1627    -0.4566 H       
  37 H37            5.2893    -0.3108    -1.2555 H       
  38 H38            5.3834    -0.1842     0.5174 H       
  39 H39            4.4850    -6.6050     0.6461 H       
  40 H40            2.7078    -6.5671     0.7373 H       
  41 H41            5.6129    -6.9680    -1.4725 H       
  42 H42            5.4773    -7.9523    -3.7253 H       
  43 H43            1.2169    -7.8620    -3.5064 H       
  44 H44            1.3546    -6.8871    -1.2497 H       
@<TRIPOS>BOND
   1    1    2 1
   2    1    8 2
   3    1    9 1
   4    2    3 ar
   5    2    7 ar
   6    3    4 ar
   7    3   29 1
   8    4    5 ar
   9    4   12 1
  10    5    6 ar
  11    5   30 1
  12    6    7 ar
  13    6   31 1
  14    7   32 1
  15    8   10 1
  16    9   33 1
  17    9   34 1
  18   10   35 1
  19   11   12 1
  20   11   16 2
  21   12   13 am
  22   13   14 am
  23   13   18 2
  24   14   15 am
  25   14   21 1
  26   15   16 1
  27   15   17 2
  28   16   19 1
  29   19   20 1
  30   20   36 1
  31   20   37 1
  32   20   38 1
  33   21   22 1
  34   21   39 1
  35   21   40 1
  36   22   23 ar
  37   22   27 ar
  38   23   24 ar
  39   23   41 1
  40   24   25 ar
  41   24   42 1
  42   25   26 ar
  43   25   28 1
  44   26   27 ar
  45   26   43 1
  46   27   44 1

#	End of record

