#	Name: ASD01208455
#	Creating user name:	WinNT
#	Creation time:	15. 06. 2019 19:09

#	Modifying user name:	WinNT
#	Modification time:	15. 06. 2019 19:09

#	Program:	/corina/corina34_cracker 3.40 0067  02.08.2006

@<TRIPOS>MOLECULE
ASD01208455
  62   64    0    0    0
SMALL
NO_CHARGES


@<TRIPOS>ATOM
   1 N1            -0.4116     1.2451    -1.1729 N.pl3   
   2 C2            -0.4378    -0.0156    -1.7258 C.2     
   3 C3             0.8668    -0.4288    -1.9071 C.2     
   4 C4             1.6962     0.5970    -1.4573 C.2     
   5 C5             0.8895     1.6203    -1.0085 C.2     
   6 C6            -1.6398    -0.7840    -2.0627 C.2     
   7 O7            -1.5356    -1.8945    -2.5498 O.2     
   8 N8            -2.8605    -0.2607    -1.8332 N.am    
   9 N9            -4.0093    -0.9951    -2.1552 N.am    
  10 C10            1.3548     2.9056    -0.4459 C.ar    
  11 C11            2.7212     3.1657    -0.3318 C.ar    
  12 C12            3.1530     4.3711     0.1959 C.ar    
  13 C13            2.2292     5.3195     0.6113 C.ar    
  14 C14            0.8698     5.0649     0.5001 C.ar    
  15 C15            0.4294     3.8643    -0.0328 C.ar    
  16 O16           -0.0307     5.9967     0.9092 O.3     
  17 C17           -0.6467     5.8065     2.1054 C.ar    
  18 C18           -1.5972     6.7144     2.5498 C.ar    
  19 C19           -2.2220     6.5187     3.7662 C.ar    
  20 C20           -1.9008     5.4193     4.5407 C.ar    
  21 C21           -0.9537     4.5132     4.1004 C.ar    
  22 C22           -0.3305     4.7009     2.8820 C.ar    
  23 S23           -2.6996     5.1726     6.0918 S.o2    
  24 O24           -1.7698     4.4083     6.8472 O.2     
  25 O25           -3.0788     6.4791     6.5024 O.2     
  26 C26           -4.1648     4.1801     5.6936 C.3     
  27 O27            4.4834     4.6252     0.3074 O.3     
  28 C28            4.8591     5.9216     0.7767 C.3     
  29 C29            6.2706     6.2519     0.2873 C.3     
  30 C30            4.8329     5.9376     2.3064 C.3     
  31 O31            7.2046     5.3490     0.8827 O.3     
  32 C32            8.5602     5.5723     0.4896 C.3     
  33 C33           -5.2300    -0.4718    -1.9256 C.2     
  34 O34           -5.3339     0.6348    -1.4403 O.2     
  35 C35           -6.4657    -1.2618    -2.2720 C.3     
  36 H36           -1.1883     1.7788    -0.9428 H       
  37 H37            1.1862    -1.3737    -2.3212 H       
  38 H38            2.7761     0.5911    -1.4600 H       
  39 H39           -2.9436     0.6244    -1.4450 H       
  40 H40           -3.9262    -1.8802    -2.5433 H       
  41 H41            3.4409     2.4278    -0.6542 H       
  42 H42            2.5694     6.2584     1.0227 H       
  43 H43           -0.6289     3.6688    -0.1235 H       
  44 H44           -1.8482     7.5736     1.9454 H       
  45 H45           -2.9616     7.2253     4.1127 H       
  46 H46           -0.7042     3.6556     4.7076 H       
  47 H47            0.4058     3.9904     2.5363 H       
  48 H48           -3.8538     3.2382     5.2418 H       
  49 H49           -4.7255     3.9776     6.6062 H       
  50 H50           -4.7956     4.7280     4.9937 H       
  51 H51            4.1588     6.6638     0.3935 H       
  52 H52            6.3113     6.1537    -0.7975 H       
  53 H53            6.5231     7.2741     0.5694 H       
  54 H54            5.5332     5.1955     2.6895 H       
  55 H55            5.1195     6.9265     2.6643 H       
  56 H56            3.8273     5.7024     2.6550 H       
  57 H57            9.2061     4.8468     0.9842 H       
  58 H58            8.6484     5.4600    -0.5910 H       
  59 H59            8.8602     6.5803     0.7759 H       
  60 H60           -6.7636    -1.8650    -1.4144 H       
  61 H61           -7.2730    -0.5776    -2.5329 H       
  62 H62           -6.2543    -1.9142    -3.1192 H       
@<TRIPOS>BOND
   1    1    2 1
   2    1    5 1
   3    1   36 1
   4    2    3 2
   5    2    6 1
   6    3    4 1
   7    3   37 1
   8    4    5 2
   9    4   38 1
  10    5   10 1
  11    6    7 2
  12    6    8 am
  13    8    9 1
  14    8   39 1
  15    9   33 am
  16    9   40 1
  17   10   11 ar
  18   10   15 ar
  19   11   12 ar
  20   11   41 1
  21   12   13 ar
  22   12   27 1
  23   13   14 ar
  24   13   42 1
  25   14   15 ar
  26   14   16 1
  27   15   43 1
  28   16   17 1
  29   17   18 ar
  30   17   22 ar
  31   18   19 ar
  32   18   44 1
  33   19   20 ar
  34   19   45 1
  35   20   21 ar
  36   20   23 1
  37   21   22 ar
  38   21   46 1
  39   22   47 1
  40   23   24 2
  41   23   25 2
  42   23   26 1
  43   26   48 1
  44   26   49 1
  45   26   50 1
  46   27   28 1
  47   28   29 1
  48   28   30 1
  49   28   51 1
  50   29   31 1
  51   29   52 1
  52   29   53 1
  53   30   54 1
  54   30   55 1
  55   30   56 1
  56   31   32 1
  57   32   57 1
  58   32   58 1
  59   32   59 1
  60   33   34 2
  61   33   35 1
  62   35   60 1
  63   35   61 1
  64   35   62 1

#	End of record

