#	Name: ASD01120322
#	Creating user name:	WinNT
#	Creation time:	15. 06. 2019 18:59

#	Modifying user name:	WinNT
#	Modification time:	15. 06. 2019 18:59

#	Program:	/corina/corina34_cracker 3.40 0067  02.08.2006

@<TRIPOS>MOLECULE
ASD01120322
  39   40    0    0    0
SMALL
NO_CHARGES


@<TRIPOS>ATOM
   1 C1            -0.0187     1.5258     0.0104 C.3     
   2 C2             0.0021    -0.0041     0.0020 C.3     
   3 O3            -1.3601    -0.5067     0.0123 O.3     
   4 C4            -1.5187    -1.8457     0.0066 C.2     
   5 O5            -0.5446    -2.5731    -0.0066 O.2     
   6 C6            -2.8683    -2.4256     0.0164 C.2     
   7 C7            -3.1554    -3.7545     0.0120 C.2     
   8 C8            -4.5642    -3.8909     0.0256 C.ar    
   9 C9            -5.1033    -2.5895     0.0383 C.ar    
  10 N10           -4.0488    -1.7076     0.0376 N.pl3   
  11 C11           -6.4854    -2.4217     0.0532 C.ar    
  12 C12           -7.3088    -3.5249     0.0555 C.ar    
  13 C13           -6.7747    -4.8076     0.0430 C.ar    
  14 C14           -5.4237    -4.9976     0.0279 C.ar    
  15 C15           -4.8573    -6.3940     0.0146 C.3     
  16 C16           -4.5341    -6.8269     1.4460 C.3     
  17 C17           -5.8294    -6.9232     2.2545 C.3     
  18 C18           -3.8449    -8.1927     1.4225 C.3     
  19 N19           -7.0677    -1.0609     0.0671 N.pl3   
  20 O20           -8.2770    -0.9161     0.0802 O.2     
  21 O21           -6.3376    -0.0860     0.0655 O.2     
  22 H22            1.0039     1.9031     0.0027 H       
  23 H23           -0.5459     1.8868    -0.8726 H       
  24 H24           -0.5289     1.8773     0.9072 H       
  25 H25            0.5123    -0.3556    -0.8948 H       
  26 H26            0.5293    -0.3651     0.8851 H       
  27 H27           -2.4374    -4.5612    -0.0000 H       
  28 H28           -4.1215    -0.7403     0.0449 H       
  29 H29           -8.3806    -3.3922     0.0675 H       
  30 H30           -7.4351    -5.6621     0.0450 H       
  31 H31           -5.5884    -7.0785    -0.4157 H       
  32 H32           -3.9469    -6.4111    -0.5846 H       
  33 H33           -3.8720    -6.0937     1.9066 H       
  34 H34           -6.4915    -7.6564     1.7940 H       
  35 H35           -5.5991    -7.2316     3.2743 H       
  36 H36           -6.3204    -5.9502     2.2713 H       
  37 H37           -2.9220    -8.1241     0.8465 H       
  38 H38           -3.6146    -8.5011     2.4422 H       
  39 H39           -4.5070    -8.9259     0.9619 H       
@<TRIPOS>BOND
   1    1    2 1
   2    1   22 1
   3    1   23 1
   4    1   24 1
   5    2    3 1
   6    2   25 1
   7    2   26 1
   8    3    4 1
   9    4    5 2
  10    4    6 1
  11    6    7 2
  12    6   10 1
  13    7    8 1
  14    7   27 1
  15    8    9 ar
  16    8   14 ar
  17    9   10 1
  18    9   11 ar
  19   10   28 1
  20   11   12 ar
  21   11   19 1
  22   12   13 ar
  23   12   29 1
  24   13   14 ar
  25   13   30 1
  26   14   15 1
  27   15   16 1
  28   15   31 1
  29   15   32 1
  30   16   17 1
  31   16   18 1
  32   16   33 1
  33   17   34 1
  34   17   35 1
  35   17   36 1
  36   18   37 1
  37   18   38 1
  38   18   39 1
  39   19   20 2
  40   19   21 2

#	End of record

