#	Name: ASD01908024
#	Creating user name:	WinNT
#	Creation time:	15. 06. 2019 19:54

#	Modifying user name:	WinNT
#	Modification time:	15. 06. 2019 19:54

#	Program:	/corina/corina34_cracker 3.40 0067  02.08.2006

@<TRIPOS>MOLECULE
ASD01908024
  37   38    0    0    0
SMALL
NO_CHARGES


@<TRIPOS>ATOM
   1 N1            -0.0153     1.2805     0.0091 N.pl3   
   2 N2             0.0021    -0.0041     0.0020 N.2     
   3 C3             1.2461    -0.4396    -0.0122 C.2     
   4 C4             2.0829     0.7014    -0.0141 C.2     
   5 C5             1.2452     1.7646    -0.0004 C.2     
   6 C6             1.6834    -1.8504    -0.0235 C.2     
   7 O7             2.8689    -2.1192    -0.0359 O.2     
   8 N8             0.7681    -2.8397    -0.0201 N.am    
   9 C9             1.2018    -4.2389    -0.0314 C.3     
  10 O10           -0.6128    -2.5266    -0.0057 O.3     
  11 C11           -1.1917    -2.3913    -1.3052 C.3     
  12 C12           -1.2283     2.1019     0.0195 C.3     
  13 C13           -2.1072     1.7147    -1.1419 C.ar    
  14 C14           -3.0565     0.7213    -0.9879 C.ar    
  15 C15           -3.8633     0.3645    -2.0509 C.ar    
  16 C16           -3.7205     1.0039    -3.2738 C.ar    
  17 C17           -2.7673     2.0004    -3.4258 C.ar    
  18 C18           -1.9667     2.3574    -2.3580 C.ar    
  19 O19           -4.5128     0.6545    -4.3212 O.3     
  20 C20           -4.3100     1.3551    -5.5501 C.3     
  21 H21            3.1627     0.7201    -0.0240 H       
  22 H22            1.5316     2.8060     0.0022 H       
  23 H23            1.3189    -4.5913     0.9935 H       
  24 H24            0.4546    -4.8469    -0.5414 H       
  25 H25            2.1547    -4.3198    -0.5545 H       
  26 H26           -1.0799    -3.3276    -1.8520 H       
  27 H27           -2.2505    -2.1515    -1.2081 H       
  28 H28           -0.6862    -1.5917    -1.8467 H       
  29 H29           -1.7679     1.9413     0.9528 H       
  30 H30           -0.9556     3.1538    -0.0662 H       
  31 H31           -3.1670     0.2236    -0.0358 H       
  32 H32           -4.6044    -0.4117    -1.9302 H       
  33 H33           -2.6542     2.4996    -4.3767 H       
  34 H34           -1.2277     3.1363    -2.4744 H       
  35 H35           -4.4835     2.4198    -5.3941 H       
  36 H36           -3.2868     1.1999    -5.8922 H       
  37 H37           -5.0051     0.9799    -6.3012 H       
@<TRIPOS>BOND
   1    1    2 1
   2    1    5 1
   3    1   12 1
   4    2    3 2
   5    3    4 1
   6    3    6 1
   7    4    5 2
   8    4   21 1
   9    5   22 1
  10    6    7 2
  11    6    8 am
  12    8    9 1
  13    8   10 1
  14    9   23 1
  15    9   24 1
  16    9   25 1
  17   10   11 1
  18   11   26 1
  19   11   27 1
  20   11   28 1
  21   12   13 1
  22   12   29 1
  23   12   30 1
  24   13   14 ar
  25   13   18 ar
  26   14   15 ar
  27   14   31 1
  28   15   16 ar
  29   15   32 1
  30   16   17 ar
  31   16   19 1
  32   17   18 ar
  33   17   33 1
  34   18   34 1
  35   19   20 1
  36   20   35 1
  37   20   36 1
  38   20   37 1

#	End of record

