#	Name: ASD01914134
#	Creating user name:	WinNT
#	Creation time:	15. 06. 2019 20:02

#	Modifying user name:	WinNT
#	Modification time:	15. 06. 2019 20:02

#	Program:	/corina/corina34_cracker 3.40 0067  02.08.2006

@<TRIPOS>MOLECULE
ASD01914134
  48   51    0    0    0
SMALL
NO_CHARGES


@<TRIPOS>ATOM
   1 C1             2.0805     0.5837     0.6676 C.2     
   2 C2             1.7307    -0.8417     0.6166 C.2     
   3 N3             0.5241    -1.3551     0.4253 N.2     
   4 C4             0.6912    -2.6853     0.4567 C.2     
   5 N5             1.9544    -2.9205     0.6596 N.2     
   6 O6             2.5724    -1.8808     0.7489 O.3     
   7 C7            -0.3900    -3.7214     0.2873 C.3     
   8 C8            -0.0696    -4.6007    -0.9236 C.3     
   9 C9            -1.1836    -5.6322    -1.1161 C.3     
  10 C10           -1.2644    -6.5280     0.1239 C.3     
  11 N11           -1.4275    -5.6782     1.3114 N.am    
  12 C12           -0.4618    -4.5955     1.5433 C.3     
  13 C13            0.0227    -7.3453     0.2510 C.3     
  14 C14           -2.4438    -5.8878     2.1715 C.2     
  15 C15           -2.5252    -5.1058     3.4254 C.ar    
  16 C16           -1.4024    -4.9438     4.2464 C.ar    
  17 C17           -1.5189    -4.2075     5.4065 C.ar    
  18 N18           -2.6678    -3.6575     5.7509 N.ar    
  19 C19           -3.7540    -3.7822     5.0098 C.ar    
  20 C20           -3.7239    -4.5037     3.8198 C.ar    
  21 O21           -3.2932    -6.7190     1.9174 O.2     
  22 C22            3.3395     1.1058     0.8673 C.2     
  23 C23            3.2162     2.5011     0.8427 C.2     
  24 C24            1.9123     2.7983     0.6331 C.2     
  25 N25            1.2116     1.6389     0.5189 N.pl3   
  26 Cl26           4.5059     3.6453     1.0456 Cl      
  27 F27           -4.8367    -4.6293     3.0642 F       
  28 O28           -4.9110    -3.1963     5.4105 O.3     
  29 C29           -4.8768    -2.4653     6.6379 C.3     
  30 H30           -1.3483    -3.2254     0.1334 H       
  31 H31            0.0063    -3.9777    -1.8148 H       
  32 H32            0.8771    -5.1151    -0.7586 H       
  33 H33           -2.1347    -5.1186    -1.2566 H       
  34 H34           -0.9665    -6.2429    -1.9925 H       
  35 H35           -2.1186    -7.1992     0.0348 H       
  36 H36            0.5207    -5.0202     1.7496 H       
  37 H37           -0.7864    -3.9916     2.3907 H       
  38 H38            0.8736    -6.6707     0.3462 H       
  39 H39           -0.0368    -7.9819     1.1338 H       
  40 H40            0.1484    -7.9656    -0.6364 H       
  41 H41           -0.4572    -5.3902     3.9747 H       
  42 H42           -0.6562    -4.0793     6.0435 H       
  43 H43            4.2504     0.5449     1.0155 H       
  44 H44            1.4975     3.7930     0.5633 H       
  45 H45            0.2565     1.5679     0.3647 H       
  46 H46           -4.5898    -3.1327     7.4504 H       
  47 H47           -4.1508    -1.6561     6.5587 H       
  48 H48           -5.8637    -2.0494     6.8407 H       
@<TRIPOS>BOND
   1    1    2 1
   2    1   22 2
   3    1   25 1
   4    2    3 2
   5    2    6 1
   6    3    4 1
   7    4    5 2
   8    4    7 1
   9    5    6 1
  10    7    8 1
  11    7   12 1
  12    7   30 1
  13    8    9 1
  14    8   31 1
  15    8   32 1
  16    9   10 1
  17    9   33 1
  18    9   34 1
  19   10   11 1
  20   10   13 1
  21   10   35 1
  22   11   12 1
  23   11   14 am
  24   12   36 1
  25   12   37 1
  26   13   38 1
  27   13   39 1
  28   13   40 1
  29   14   15 1
  30   14   21 2
  31   15   16 ar
  32   15   20 ar
  33   16   17 ar
  34   16   41 1
  35   17   18 ar
  36   17   42 1
  37   18   19 ar
  38   19   20 ar
  39   19   28 1
  40   20   27 1
  41   22   23 1
  42   22   43 1
  43   23   24 2
  44   23   26 1
  45   24   25 1
  46   24   44 1
  47   25   45 1
  48   28   29 1
  49   29   46 1
  50   29   47 1
  51   29   48 1

#	End of record

