#	Name: ASD03730938
#	Creating user name:	WinNT
#	Creation time:	15. 06. 2019 20:44

#	Modifying user name:	WinNT
#	Modification time:	15. 06. 2019 20:44

#	Program:	/corina/corina34_cracker 3.40 0067  02.08.2006

@<TRIPOS>MOLECULE
ASD03730938
  59   65    0    0    0
SMALL
NO_CHARGES


@<TRIPOS>ATOM
   1 C1            -0.0180     1.4742     0.0101 C.2     
   2 C2             0.0021    -0.0041     0.0020 C.ar    
   3 C3             1.2186    -0.6886    -0.0133 C.ar    
   4 C4             1.2303    -2.0679    -0.0203 C.ar    
   5 C5             0.0396    -2.7730    -0.0127 C.ar    
   6 C6            -1.1694    -2.1008     0.0024 C.ar    
   7 C7            -1.1950    -0.7213     0.0154 C.ar    
   8 O8             1.0263     2.0963     0.0035 O.2     
   9 N9            -1.1942     2.1322     0.0193 N.am    
  10 C10           -1.2141     3.5970     0.0274 C.3     
  11 C11           -2.6415     4.0800     0.0368 C.2     
  12 C12           -3.3648     4.3205     1.1315 C.2     
  13 C13           -4.6559     4.7588     0.8929 C.2     
  14 C14           -4.9812     4.8742    -0.3956 C.2     
  15 S15           -3.6063     4.4200    -1.3940 S.3     
  16 C16            2.5426    -2.8085    -0.0368 C.3     
  17 O17           -0.8950    -3.3222     6.2568 O.3     
  18 C18           -0.9357    -3.5767     7.6734 C.3     
  19 O19           -0.0305    -4.6825     7.8486 O.3     
  20 C20            0.8672    -4.5864     6.8240 C.ar    
  21 C21            0.3345    -3.7506     5.8451 C.ar    
  22 C22            2.1164    -5.1528     6.6449 C.ar    
  23 C23            2.8483    -4.8954     5.4896 C.ar    
  24 C24            2.3022    -4.0656     4.5151 C.ar    
  25 C25            1.0594    -3.4944     4.6934 C.ar    
  26 O26            4.0884    -5.3328     5.1276 O.3     
  27 C27            3.3036    -4.0052     3.3929 C.3     
  28 C28            4.2536    -5.1693     3.7058 C.3     
  29 N29            2.9813    -3.0555     1.3390 N.am    
  30 C30            2.6574    -4.1565     2.0459 C.2     
  31 C31            4.0258    -2.6916     3.3422 C.ar    
  32 C32            4.7978    -1.9949     4.2449 C.ar    
  33 C33            5.3433    -0.7733     3.8926 C.ar    
  34 C34            5.1110    -0.2535     2.6322 C.ar    
  35 C35            4.3376    -0.9471     1.7248 C.ar    
  36 C36            3.7848    -2.1777     2.0707 C.ar    
  37 O37            1.9775    -5.0871     1.6680 O.2     
  38 H38            2.1485    -0.1394    -0.0199 H       
  39 H39            0.0543    -3.8529    -0.0190 H       
  40 H40           -2.0951    -2.6570     0.0083 H       
  41 H41           -2.1395    -0.1977     0.0314 H       
  42 H42           -2.0276     1.6358     0.0206 H       
  43 H43           -0.7010     3.9625     0.9169 H       
  44 H44           -0.7094     3.9721    -0.8630 H       
  45 H45           -2.9728     4.1833     2.1284 H       
  46 H46           -5.3476     4.9895     1.6896 H       
  47 H47           -5.9409     5.2002    -0.7686 H       
  48 H48            2.4166    -3.7596    -0.5542 H       
  49 H49            3.2914    -2.2095    -0.5550 H       
  50 H50           -0.5884    -2.7057     8.2291 H       
  51 H51           -1.9432    -3.8536     7.9839 H       
  52 H52            2.5266    -5.7991     7.4068 H       
  53 H53            0.6506    -2.8459     3.9327 H       
  54 H54            5.2829    -4.9048     3.4636 H       
  55 H55            3.9491    -6.0710     3.1745 H       
  56 H56            4.9778    -2.4026     5.2287 H       
  57 H57            5.9496    -0.2270     4.6001 H       
  58 H58            5.5367     0.7002     2.3573 H       
  59 H59            4.1602    -0.5344     0.7427 H       
@<TRIPOS>BOND
   1    1    2 1
   2    1    8 2
   3    1    9 am
   4    2    3 ar
   5    2    7 ar
   6    3    4 ar
   7    3   38 1
   8    4    5 ar
   9    4   16 1
  10    5    6 ar
  11    5   39 1
  12    6    7 ar
  13    6   40 1
  14    7   41 1
  15    9   10 1
  16    9   42 1
  17   10   11 1
  18   10   43 1
  19   10   44 1
  20   11   12 2
  21   11   15 1
  22   12   13 1
  23   12   45 1
  24   13   14 2
  25   13   46 1
  26   14   15 1
  27   14   47 1
  28   16   29 1
  29   16   48 1
  30   16   49 1
  31   17   18 1
  32   17   21 1
  33   18   19 1
  34   18   50 1
  35   18   51 1
  36   19   20 1
  37   20   21 ar
  38   20   22 ar
  39   21   25 ar
  40   22   23 ar
  41   22   52 1
  42   23   24 ar
  43   23   26 1
  44   24   25 ar
  45   24   27 1
  46   25   53 1
  47   26   28 1
  48   27   28 1
  49   27   30 1
  50   27   31 1
  51   28   54 1
  52   28   55 1
  53   29   30 am
  54   29   36 1
  55   30   37 2
  56   31   32 ar
  57   31   36 ar
  58   32   33 ar
  59   32   56 1
  60   33   34 ar
  61   33   57 1
  62   34   35 ar
  63   34   58 1
  64   35   36 ar
  65   35   59 1

#	End of record

