#	Name: ASD01208435
#	Creating user name:	WinNT
#	Creation time:	15. 06. 2019 19:09

#	Modifying user name:	WinNT
#	Modification time:	15. 06. 2019 19:09

#	Program:	/corina/corina34_cracker 3.40 0067  02.08.2006

@<TRIPOS>MOLECULE
ASD01208435
  33   34    0    0    0
SMALL
NO_CHARGES


@<TRIPOS>ATOM
   1 S1            -0.0211     1.7049     0.0114 S.3     
   2 C2             0.0021    -0.0041     0.0020 C.2     
   3 N3             1.2335    -0.4455    -0.0121 N.2     
   4 C4             2.1867     0.4436    -0.0164 C.2     
   5 C5             1.7403     1.7420    -0.0052 C.2     
   6 C6             2.5500     2.9022    -0.0067 C.2     
   7 O7             3.7709     2.7974    -0.0194 O.co2   
   8 O8             2.0304     4.0121     0.0047 O.co2   
   9 N9            -1.2070    -2.2385     0.0023 N.am    
  10 C10           -1.1921    -0.8568     0.0096 C.2     
  11 C11           -2.4888    -0.4274     0.0256 C.2     
  12 C12           -3.3090    -1.5652     0.0281 C.2     
  13 C13           -2.5091    -2.6553     0.0138 C.2     
  14 C14           -0.1228    -3.0389    -0.0184 C.2     
  15 O15            0.3815    -3.4051     1.0237 O.2     
  16 O16            0.4008    -3.4321    -1.1939 O.3     
  17 C17            1.5684    -4.2935    -1.1402 C.3     
  18 C18            1.2172    -5.5827    -0.3948 C.3     
  19 C19            2.0174    -4.6332    -2.5629 C.3     
  20 C20            2.7009    -3.5725    -0.4064 C.3     
  21 Br21          -3.0931    -4.4539     0.0109 Br      
  22 H22            3.2346     0.1822    -0.0273 H       
  23 H23           -2.8215     0.6001     0.0346 H       
  24 H24           -4.3889    -1.5698     0.0398 H       
  25 H25            0.4104    -6.0964    -0.9176 H       
  26 H26            2.0937    -6.2294    -0.3545 H       
  27 H27            0.8973    -5.3408     0.6187 H       
  28 H28            2.2677    -3.7147    -3.0939 H       
  29 H29            2.8940    -5.2799    -2.5226 H       
  30 H30            1.2107    -5.1468    -3.0857 H       
  31 H31            2.3809    -3.3306     0.6071 H       
  32 H32            3.5774    -4.2192    -0.3661 H       
  33 H33            2.9511    -2.6541    -0.9374 H       
@<TRIPOS>BOND
   1    1    2 1
   2    1    5 1
   3    2    3 2
   4    2   10 1
   5    3    4 1
   6    4    5 2
   7    4   22 1
   8    5    6 1
   9    6    7 ar
  10    6    8 ar
  11    9   10 1
  12    9   13 1
  13    9   14 am
  14   10   11 2
  15   11   12 1
  16   11   23 1
  17   12   13 2
  18   12   24 1
  19   13   21 1
  20   14   15 2
  21   14   16 1
  22   16   17 1
  23   17   18 1
  24   17   20 1
  25   17   19 1
  26   18   25 1
  27   18   26 1
  28   18   27 1
  29   19   28 1
  30   19   29 1
  31   19   30 1
  32   20   31 1
  33   20   32 1
  34   20   33 1

#	End of record

