#	Name: ASD03200097
#	Creating user name:	WinNT
#	Creation time:	15. 06. 2019 20:34

#	Modifying user name:	WinNT
#	Modification time:	15. 06. 2019 20:34

#	Program:	/corina/corina34_cracker 3.40 0067  02.08.2006

@<TRIPOS>MOLECULE
ASD03200097
  19   19    0    0    0
SMALL
NO_CHARGES


@<TRIPOS>ATOM
   1 S1            -0.0172     1.4168     0.0098 S.o2    
   2 O2             1.1617     2.2101     0.0028 O.2     
   3 O3             0.0021    -0.0041     0.0020 O.2     
   4 N4            -0.8748     1.8654     1.3536 N.am    
   5 C5            -2.4308     2.6820    -3.6057 C.ar    
   6 C6            -1.2012     3.2624    -3.3572 C.ar    
   7 C7            -0.4643     2.8761    -2.2530 C.ar    
   8 C8            -0.9567     1.9094    -1.3970 C.ar    
   9 C9            -2.1876     1.3280    -1.6453 C.ar    
  10 C10           -2.9245     1.7149    -2.7502 C.ar    
  11 Cl11          -2.8067     0.1131    -0.5708 Cl      
  12 N12           -0.6730     4.2976    -4.2739 N.pl3   
  13 O13            0.4105     4.8092    -4.0551 O.2     
  14 O14           -1.3218     4.6378    -5.2469 O.2     
  15 H15           -0.7362     2.7410     1.7474 H       
  16 H16           -1.5157     1.2527     1.7468 H       
  17 H17           -3.0080     2.9874    -4.4659 H       
  18 H18            0.4964     3.3300    -2.0593 H       
  19 H19           -3.8871     1.2644    -2.9422 H       
@<TRIPOS>BOND
   1    1    3 2
   2    1    2 2
   3    1    4 am
   4    1    8 1
   5    4   15 1
   6    4   16 1
   7    5   10 ar
   8    5   17 1
   9    5    6 ar
  10    6    7 ar
  11    6   12 1
  12    7    8 ar
  13    7   18 1
  14    8    9 ar
  15    9   11 1
  16    9   10 ar
  17   10   19 1
  18   12   14 2
  19   12   13 2

#	End of record

