#	Name: ASD01816500
#	Creating user name:	WinNT
#	Creation time:	15. 06. 2019 19:35

#	Modifying user name:	WinNT
#	Modification time:	15. 06. 2019 19:35

#	Program:	/corina/corina34_cracker 3.40 0067  02.08.2006

@<TRIPOS>MOLECULE
ASD01816500
  65   71    0    0    0
SMALL
NO_CHARGES


@<TRIPOS>ATOM
   1 C1            -0.0531     1.4842    -0.1035 C.ar    
   2 C2            -0.0549     0.0990    -0.1306 C.ar    
   3 C3             1.1312    -0.6055    -0.1414 C.ar    
   4 C4             2.3445     0.0731    -0.1255 C.ar    
   5 C5             2.3429     1.4778    -0.0985 C.ar    
   6 C6             1.1404     2.1767    -0.0874 C.ar    
   7 N7             3.5381    -0.6278    -0.1357 N.pl3   
   8 C8             4.7389    -0.0271    -0.1209 C.2     
   9 C9             4.8622     1.3398    -0.0944 C.2     
  10 C10            3.6415     2.1778    -0.0821 C.2     
  11 C11            5.9735     2.2858    -0.0733 C.2     
  12 N12            5.4192     3.5171    -0.0516 N.am    
  13 N13            4.0253     3.4219    -0.0575 N.2     
  14 C14            6.1391     4.7185    -0.0273 C.ar    
  15 O15            7.1641     2.0180    -0.0745 O.2     
  16 C16            3.4890    -2.0917    -0.1635 C.3     
  17 C17            3.4757    -2.5669    -1.5935 C.ar    
  18 C18            4.6673    -2.8247    -2.2461 C.ar    
  19 C19            4.6584    -3.2598    -3.5569 C.ar    
  20 C20            3.4514    -3.4388    -4.2192 C.ar    
  21 C21            2.2566    -3.1796    -3.5612 C.ar    
  22 C22            2.2718    -2.7496    -2.2488 C.ar    
  23 N23            3.4391    -3.8799    -5.5498 N.pl3   
  24 C24            2.3394    -4.0940    -6.3071 C.2     
  25 C25            2.7537    -4.5124    -7.5255 C.2     
  26 C26            4.1522    -4.5557    -7.5135 C.2     
  27 N27            4.5639    -4.1712    -6.3322 N.2     
  28 C28            7.0896     4.9798    -1.0030 C.ar    
  29 C29            7.7984     6.1662    -0.9772 C.ar    
  30 C30            7.5637     7.0953     0.0197 C.ar    
  31 C31            6.6187     6.8433     0.9966 C.ar    
  32 C32            5.8982     5.6584     0.9753 C.ar    
  33 N33            4.9407     5.4013     1.9630 N.am    
  34 C34            4.3419     6.4248     2.6037 C.2     
  35 O35            4.6851     7.5687     2.3760 O.2     
  36 C36            3.2689     6.1567     3.5822 C.ar    
  37 C37            2.8720     4.8444     3.8464 C.ar    
  38 C38            1.8694     4.6010     4.7613 C.ar    
  39 C39            1.2554     5.6532     5.4184 C.ar    
  40 C40            1.6412     6.9561     5.1638 C.ar    
  41 C41            2.6490     7.2159     4.2534 C.ar    
  42 F42            3.0263     8.4891     4.0050 F       
  43 H43           -0.9887     2.0237    -0.0994 H       
  44 H44           -0.9938    -0.4345    -0.1430 H       
  45 H45            1.1171    -1.6853    -0.1618 H       
  46 H46            1.1407     3.2565    -0.0671 H       
  47 H47            5.6313    -0.6354    -0.1298 H       
  48 H48            4.3650    -2.4943     0.3451 H       
  49 H49            2.5861    -2.4346     0.3417 H       
  50 H50            5.6059    -2.6853    -1.7303 H       
  51 H51            5.5894    -3.4603    -4.0662 H       
  52 H52            1.3162    -3.3175    -4.0740 H       
  53 H53            1.3428    -2.5478    -1.7364 H       
  54 H54            1.3146    -3.9565    -5.9953 H       
  55 H55            2.1173    -4.7677    -8.3598 H       
  56 H56            4.7834    -4.8512    -8.3386 H       
  57 H57            7.2761     4.2562    -1.7828 H       
  58 H58            8.5381     6.3680    -1.7378 H       
  59 H59            8.1206     8.0205     0.0353 H       
  60 H60            6.4386     7.5710     1.7741 H       
  61 H61            4.7079     4.4866     2.1865 H       
  62 H62            3.3491     4.0215     3.3349 H       
  63 H63            1.5619     3.5860     4.9655 H       
  64 H64            0.4705     5.4553     6.1335 H       
  65 H65            1.1578     7.7721     5.6802 H       
@<TRIPOS>BOND
   1    1    2 ar
   2    1    6 ar
   3    1   43 1
   4    2    3 ar
   5    2   44 1
   6    3    4 ar
   7    3   45 1
   8    4    5 ar
   9    4    7 1
  10    5    6 ar
  11    5   10 1
  12    6   46 1
  13    7    8 1
  14    7   16 1
  15    8    9 2
  16    8   47 1
  17    9   10 1
  18    9   11 1
  19   10   13 2
  20   11   12 am
  21   11   15 2
  22   12   13 1
  23   12   14 1
  24   14   28 ar
  25   14   32 ar
  26   16   17 1
  27   16   48 1
  28   16   49 1
  29   17   18 ar
  30   17   22 ar
  31   18   19 ar
  32   18   50 1
  33   19   20 ar
  34   19   51 1
  35   20   21 ar
  36   20   23 1
  37   21   22 ar
  38   21   52 1
  39   22   53 1
  40   23   24 1
  41   23   27 1
  42   24   25 2
  43   24   54 1
  44   25   26 1
  45   25   55 1
  46   26   27 2
  47   26   56 1
  48   28   29 ar
  49   28   57 1
  50   29   30 ar
  51   29   58 1
  52   30   31 ar
  53   30   59 1
  54   31   32 ar
  55   31   60 1
  56   32   33 1
  57   33   34 am
  58   33   61 1
  59   34   35 2
  60   34   36 1
  61   36   37 ar
  62   36   41 ar
  63   37   38 ar
  64   37   62 1
  65   38   39 ar
  66   38   63 1
  67   39   40 ar
  68   39   64 1
  69   40   41 ar
  70   40   65 1
  71   41   42 1

#	End of record

