#	Name: ASD01911129
#	Creating user name:	WinNT
#	Creation time:	15. 06. 2019 19:57

#	Modifying user name:	WinNT
#	Modification time:	15. 06. 2019 19:57

#	Program:	/corina/corina34_cracker 3.40 0067  02.08.2006

@<TRIPOS>MOLECULE
ASD01911129
  45   48    0    0    0
SMALL
NO_CHARGES


@<TRIPOS>ATOM
   1 C1            -0.2004     1.1526     1.1238 C.2     
   2 O2            -0.3566    -0.0473     1.0077 O.2     
   3 N3             1.0399     1.6782     1.0788 N.am    
   4 C4             2.2192     0.8070     0.9844 C.3     
   5 C5             3.1873     1.1633     2.1168 C.3     
   6 C6             3.5049     2.6593     2.0594 C.3     
   7 C7             2.2175     3.4636     2.2536 C.3     
   8 C8             1.2380     3.1336     1.1170 C.3     
   9 O9             5.2909     0.4056     0.9114 O.3     
  10 N10            6.2218    -0.3493     1.0980 N.2     
  11 C11            6.0981    -0.9380     2.2557 C.2     
  12 N12            4.9621    -0.4781     2.8196 N.2     
  13 C13            4.4602     0.3724     1.9578 C.2     
  14 O14            6.9524    -1.8442     2.7924 O.3     
  15 C15            8.1164    -2.0906     2.1356 C.ar    
  16 C16            8.4819    -1.3057     1.0517 C.ar    
  17 C17            9.6673    -1.5588     0.3850 C.ar    
  18 C18           10.4878    -2.5949     0.7998 C.ar    
  19 C19           10.1239    -3.3770     1.8796 C.ar    
  20 C20            8.9435    -3.1238     2.5517 C.ar    
  21 F21           10.0245    -0.7956    -0.6710 F       
  22 C22           -1.3709     2.0357     1.3081 C.ar    
  23 C23           -1.4419     3.2555     0.6323 C.ar    
  24 C24           -2.5374     4.0757     0.8086 C.ar    
  25 C25           -3.5658     3.6902     1.6548 C.ar    
  26 C26           -3.5000     2.4816     2.3272 C.ar    
  27 C27           -2.4125     1.6510     2.1542 C.ar    
  28 Cl28          -4.9410     4.7271     1.8726 Cl      
  29 Cl29          -2.6279     5.5930    -0.0300 Cl      
  30 H30            1.9125    -0.2346     1.0800 H       
  31 H31            2.7097     0.9589     0.0229 H       
  32 H32            2.7282     0.9254     3.0764 H       
  33 H33            4.2128     2.9108     2.8491 H       
  34 H34            3.9413     2.9009     1.0902 H       
  35 H35            1.7674     3.2041     3.2118 H       
  36 H36            2.4478     4.5288     2.2359 H       
  37 H37            1.6501     3.4713     0.1662 H       
  38 H38            0.2838     3.6276     1.3001 H       
  39 H39            7.8416    -0.4982     0.7286 H       
  40 H40           11.4129    -2.7920     0.2785 H       
  41 H41           10.7652    -4.1843     2.2013 H       
  42 H42            8.6627    -3.7328     3.3983 H       
  43 H43           -0.6409     3.5565    -0.0267 H       
  44 H44           -4.3040     2.1865     2.9850 H       
  45 H45           -2.3647     0.7066     2.6759 H       
@<TRIPOS>BOND
   1    1    2 2
   2    1    3 am
   3    1   22 1
   4    3    4 1
   5    3    8 1
   6    4    5 1
   7    4   30 1
   8    4   31 1
   9    5    6 1
  10    5   13 1
  11    5   32 1
  12    6    7 1
  13    6   33 1
  14    6   34 1
  15    7    8 1
  16    7   35 1
  17    7   36 1
  18    8   37 1
  19    8   38 1
  20    9   10 1
  21    9   13 1
  22   10   11 2
  23   11   12 1
  24   11   14 1
  25   12   13 2
  26   14   15 1
  27   15   16 ar
  28   15   20 ar
  29   16   17 ar
  30   16   39 1
  31   17   18 ar
  32   17   21 1
  33   18   19 ar
  34   18   40 1
  35   19   20 ar
  36   19   41 1
  37   20   42 1
  38   22   23 ar
  39   22   27 ar
  40   23   24 ar
  41   23   43 1
  42   24   25 ar
  43   24   29 1
  44   25   26 ar
  45   25   28 1
  46   26   27 ar
  47   26   44 1
  48   27   45 1

#	End of record

