#	Name: ASD01230827
#	Creating user name:	WinNT
#	Creation time:	15. 06. 2019 19:15

#	Modifying user name:	WinNT
#	Modification time:	15. 06. 2019 19:15

#	Program:	/corina/corina34_cracker 3.40 0067  02.08.2006

@<TRIPOS>MOLECULE
ASD01230827
  45   48    0    0    0
SMALL
NO_CHARGES


@<TRIPOS>ATOM
   1 C1             0.0242     1.5930    -0.8728 C.3     
   2 C2            -0.1152     0.1868    -0.2834 C.3     
   3 C3            -1.5088    -0.3762    -0.5242 C.3     
   4 C4            -2.5700     0.7096    -0.6352 C.3     
   5 N5            -2.1903     1.9050     0.1212 N.pl3   
   6 C6            -0.9769     2.4807    -0.1533 C.2     
   7 C7            -3.0683     2.4391     1.1592 C.3     
   8 C8            -3.3026     3.9302     0.9113 C.3     
   9 S9            -1.7053     4.7790     0.8024 S.o2    
  10 N10           -0.6755     3.6887     0.1218 N.am    
  11 C11            1.4223     2.1082    -0.6472 C.ar    
  12 O12           -1.7688     5.8352    -0.1461 O.2     
  13 O13           -1.1706     4.9979     2.1006 O.2     
  14 C14            2.2161     2.4459    -1.7279 C.ar    
  15 C15            3.4982     2.9179    -1.5239 C.ar    
  16 C16            3.9892     3.0534    -0.2332 C.ar    
  17 C17            3.1904     2.7142     0.8495 C.ar    
  18 C18            1.9072     2.2476     0.6402 C.ar    
  19 O19            5.2502     3.5171    -0.0299 O.3     
  20 C20            5.4262     4.8602     0.0796 C.ar    
  21 C21            4.3269     5.7065     0.0926 C.ar    
  22 C22            4.5084     7.0714     0.2039 C.ar    
  23 C23            5.7844     7.5952     0.3019 C.ar    
  24 C24            6.8822     6.7549     0.2893 C.ar    
  25 C25            6.7062     5.3877     0.1843 C.ar    
  26 Cl26           8.0848     4.3326     0.1691 Cl      
  27 H27           -0.1960     1.5720    -1.9401 H       
  28 H28            0.6204    -0.4697    -0.7481 H       
  29 H29            0.0726     0.2289     0.7895 H       
  30 H30           -1.4997    -0.9552    -1.4476 H       
  31 H31           -1.7682    -1.0387     0.3016 H       
  32 H32           -2.6986     0.9769    -1.6840 H       
  33 H33           -3.5140     0.3269    -0.2473 H       
  34 H34           -4.0223     1.9124     1.1345 H       
  35 H35           -2.6026     2.3018     2.1351 H       
  36 H36           -3.8491     4.0621    -0.0225 H       
  37 H37           -3.8817     4.3491     1.7343 H       
  38 H38            1.8334     2.3403    -2.7323 H       
  39 H39            4.1180     3.1810    -2.3683 H       
  40 H40            3.5703     2.8184     1.8551 H       
  41 H41            1.2850     1.9834     1.4825 H       
  42 H42            3.3299     5.2984     0.0154 H       
  43 H43            3.6527     7.7302     0.2140 H       
  44 H44            5.9237     8.6627     0.3881 H       
  45 H45            7.8778     7.1665     0.3660 H       
@<TRIPOS>BOND
   1    1    2 1
   2    1   11 1
   3    1    6 1
   4    1   27 1
   5    2    3 1
   6    2   28 1
   7    2   29 1
   8    3    4 1
   9    3   30 1
  10    3   31 1
  11    4    5 1
  12    4   32 1
  13    4   33 1
  14    5    6 1
  15    5    7 1
  16    6   10 2
  17    7    8 1
  18    7   34 1
  19    7   35 1
  20    8    9 1
  21    8   36 1
  22    8   37 1
  23    9   10 am
  24    9   12 2
  25    9   13 2
  26   11   14 ar
  27   11   18 ar
  28   14   15 ar
  29   14   38 1
  30   15   16 ar
  31   15   39 1
  32   16   17 ar
  33   16   19 1
  34   17   18 ar
  35   17   40 1
  36   18   41 1
  37   19   20 1
  38   20   21 ar
  39   20   25 ar
  40   21   22 ar
  41   21   42 1
  42   22   23 ar
  43   22   43 1
  44   23   24 ar
  45   23   44 1
  46   24   25 ar
  47   24   45 1
  48   25   26 1

#	End of record

