#	Name: ASD01882202
#	Creating user name:	WinNT
#	Creation time:	15. 06. 2019 19:44

#	Modifying user name:	WinNT
#	Modification time:	15. 06. 2019 19:44

#	Program:	/corina/corina34_cracker 3.40 0067  02.08.2006

@<TRIPOS>MOLECULE
ASD01882202
  72   74    0    0    0
SMALL
NO_CHARGES


@<TRIPOS>ATOM
   1 N1            -0.0168     1.3854     0.0097 N.pl3   
   2 C2             0.0021    -0.0041     0.0020 C.ar    
   3 C3            -1.1949    -0.7158     0.0096 C.ar    
   4 C4            -1.1784    -2.0916     0.0021 C.ar    
   5 C5             0.0396    -2.7742    -0.0137 C.ar    
   6 C6             1.2387    -2.0587    -0.0218 C.ar    
   7 C7             1.2179    -0.6829    -0.0191 C.ar    
   8 O8             1.2100    -5.2030    -0.0377 O.3     
   9 B9             0.0609    -4.3440    -0.0218 Du      
  10 O10           -1.0644    -5.2339    -0.0144 O.3     
  11 C11           -0.6744    -6.3087     0.8663 C.3     
  12 C12            0.8676    -6.2877     0.8504 C.3     
  13 C13            1.4133    -7.6112     0.3106 C.3     
  14 C14            1.4116    -6.0186     2.2549 C.3     
  15 C15           -1.1965    -6.0541     2.2817 C.3     
  16 C16           -1.1948    -7.6467     0.3374 C.3     
  17 C17            1.2419     2.1351     0.0017 C.3     
  18 C18            1.0052     3.5225    -0.5983 C.3     
  19 C19            2.3197     4.3054    -0.6066 C.3     
  20 C20            2.8359     4.4507     0.8263 C.3     
  21 C21            3.0725     3.0633     1.4263 C.3     
  22 C22            1.7581     2.2803     1.4346 C.3     
  23 O23            4.0636     5.1820     0.8185 O.3     
  24 Si24           4.3242     6.0552     2.1712 Si      
  25 C25            2.9485     7.2929     2.3860 C.3     
  26 C26            4.3716     4.9172     3.6455 C.3     
  27 C27            5.9503     6.9529     2.0272 C.3     
  28 C28            5.9114     7.8875     0.8164 C.3     
  29 C29            6.1948     7.7720     3.2961 C.3     
  30 C30            7.0802     5.9364     1.8507 C.3     
  31 H31           -0.8633     1.8589     0.0162 H       
  32 H32           -2.1368    -0.1875     0.0218 H       
  33 H33           -2.1069    -2.6432     0.0087 H       
  34 H34            2.1819    -2.5848    -0.0339 H       
  35 H35            2.1450    -0.1291    -0.0294 H       
  36 H36            2.5004    -7.5589     0.2514 H       
  37 H37            1.1244    -8.4227     0.9785 H       
  38 H38            1.0037    -7.7949    -0.6827 H       
  39 H39            1.0008    -5.0813     2.6303 H       
  40 H40            1.1227    -6.8335     2.9187 H       
  41 H41            2.4987    -5.9493     2.2164 H       
  42 H42           -2.2857    -6.0145     2.2656 H       
  43 H43           -0.8721    -6.8607     2.9392 H       
  44 H44           -0.8038    -5.1059     2.6488 H       
  45 H45           -0.8009    -7.8195    -0.6641 H       
  46 H46           -0.8703    -8.4499     0.9990 H       
  47 H47           -2.2840    -7.6240     0.3005 H       
  48 H48            1.9791     1.6009    -0.5977 H       
  49 H49            0.6375     3.4190    -1.6191 H       
  50 H50            0.2680     4.0566     0.0011 H       
  51 H51            3.0570     3.7713    -1.2060 H       
  52 H52            2.1511     5.2939    -1.0340 H       
  53 H53            2.0987     4.9848     1.4257 H       
  54 H54            3.8098     2.5291     0.8269 H       
  55 H55            3.4403     3.1667     2.4471 H       
  56 H56            1.0208     2.8144     2.0340 H       
  57 H57            1.9266     1.2919     1.8620 H       
  58 H58            1.9971     6.7677     2.4703 H       
  59 H59            3.1227     7.8765     3.2900 H       
  60 H60            2.9208     7.9587     1.5235 H       
  61 H61            5.1765     4.1930     3.5198 H       
  62 H62            4.5457     5.5008     4.5495 H       
  63 H63            3.4202     4.3920     3.7297 H       
  64 H64            5.1065     8.6116     0.9421 H       
  65 H65            6.8628     8.4127     0.7321 H       
  66 H66            5.7373     7.3039    -0.0876 H       
  67 H67            6.2225     7.1062     4.1586 H       
  68 H68            7.1462     8.2972     3.2118 H       
  69 H69            5.3899     8.4962     3.4218 H       
  70 H70            6.9060     5.3528     0.9467 H       
  71 H71            8.0315     6.4616     1.7665 H       
  72 H72            7.1079     5.2706     2.7133 H       
@<TRIPOS>BOND
   1    1    2 1
   2    1   17 1
   3    1   31 1
   4    2    3 ar
   5    2    7 ar
   6    3    4 ar
   7    3   32 1
   8    4    5 ar
   9    4   33 1
  10    5    6 ar
  11    5    9 1
  12    6    7 ar
  13    6   34 1
  14    7   35 1
  15    8    9 1
  16    8   12 1
  17    9   10 1
  18   10   11 1
  19   11   12 1
  20   11   15 1
  21   11   16 1
  22   12   13 1
  23   12   14 1
  24   13   36 1
  25   13   37 1
  26   13   38 1
  27   14   39 1
  28   14   40 1
  29   14   41 1
  30   15   42 1
  31   15   43 1
  32   15   44 1
  33   16   45 1
  34   16   46 1
  35   16   47 1
  36   17   18 1
  37   17   22 1
  38   17   48 1
  39   18   19 1
  40   18   49 1
  41   18   50 1
  42   19   20 1
  43   19   51 1
  44   19   52 1
  45   20   21 1
  46   20   23 1
  47   20   53 1
  48   21   22 1
  49   21   54 1
  50   21   55 1
  51   22   56 1
  52   22   57 1
  53   23   24 1
  54   24   25 1
  55   24   26 1
  56   24   27 1
  57   25   58 1
  58   25   59 1
  59   25   60 1
  60   26   61 1
  61   26   62 1
  62   26   63 1
  63   27   28 1
  64   27   30 1
  65   27   29 1
  66   28   64 1
  67   28   65 1
  68   28   66 1
  69   29   67 1
  70   29   68 1
  71   29   69 1
  72   30   70 1
  73   30   71 1
  74   30   72 1

#	End of record

