#	Name: ASD01911993
#	Creating user name:	WinNT
#	Creation time:	15. 06. 2019 19:58

#	Modifying user name:	WinNT
#	Modification time:	15. 06. 2019 19:58

#	Program:	/corina/corina34_cracker 3.40 0067  02.08.2006

@<TRIPOS>MOLECULE
ASD01911993
  62   65    0    0    0
SMALL
NO_CHARGES


@<TRIPOS>ATOM
   1 C1            -0.0166     1.3758     0.0096 C.ar    
   2 C2             0.0021    -0.0041     0.0020 C.ar    
   3 C3            -1.1960    -0.7150     0.0101 C.ar    
   4 C4            -2.4087    -0.0287     0.0258 C.ar    
   5 C5            -2.4183     1.3508     0.0333 C.ar    
   6 C6            -1.2243     2.0540     0.0306 C.ar    
   7 C7            -1.1807    -2.1991     0.0015 C.2     
   8 N8            -0.1086    -2.9624    -0.0133 N.2     
   9 C9            -2.3110    -3.0394     0.0138 C.2     
  10 C10           -1.8762    -4.3183     0.0000 C.2     
  11 N11           -0.5261    -4.2994    -0.0168 N.pl3   
  12 C12           -2.7450    -5.5496     0.0066 C.3     
  13 C13           -3.9919    -5.2895     0.8543 C.3     
  14 C14           -3.1635    -5.8863    -1.4261 C.3     
  15 C15            0.3500    -5.4735    -0.0352 C.3     
  16 C16            0.6325    -5.8672    -1.4621 C.2     
  17 N17            1.4217    -6.9276    -1.7250 N.am    
  18 O18            0.1496    -5.2298    -2.3740 O.2     
  19 C19            1.7103    -7.3290    -3.1102 C.3     
  20 C20            2.0223    -7.7104    -0.6342 C.3     
  21 C21            3.5268    -7.8361    -0.8964 C.3     
  22 N22            3.7420    -8.3810    -2.2435 N.3     
  23 C23            3.2278    -7.4705    -3.2699 C.3     
  24 C24            5.0829    -8.6614    -2.4578 C.ar    
  25 N25            5.4589    -9.1616    -3.6249 N.ar    
  26 N26            5.9554    -8.4171    -1.4920 N.ar    
  27 C27            7.2424    -8.6723    -1.6614 C.ar    
  28 C28            7.6735    -9.2031    -2.8717 C.ar    
  29 C29            6.7297    -9.4411    -3.8642 C.ar    
  30 F30           -1.2382     3.4049     0.0384 F       
  31 C31            1.2787     2.1460     0.0014 C.3     
  32 O32            8.9890    -9.4782    -3.0819 O.3     
  33 C33            9.3427   -10.0220    -4.3552 C.3     
  34 H34            0.9441    -0.5321    -0.0105 H       
  35 H35           -3.3397    -0.5760     0.0318 H       
  36 H36           -3.3577     1.8835     0.0452 H       
  37 H37           -3.3420    -2.7184     0.0317 H       
  38 H38           -2.1871    -6.3858     0.4281 H       
  39 H39           -4.5499    -4.4534     0.4327 H       
  40 H40           -4.6203    -6.1801     0.8590 H       
  41 H41           -3.6938    -5.0497     1.8749 H       
  42 H42           -2.2752    -6.0716    -2.0299 H       
  43 H43           -3.7919    -6.7769    -1.4213 H       
  44 H44           -3.7214    -5.0501    -1.8476 H       
  45 H45            1.2869    -5.2356     0.4684 H       
  46 H46           -0.1396    -6.3002     0.4797 H       
  47 H47            1.2292    -8.2837    -3.3226 H       
  48 H48            1.3392    -6.5680    -3.7967 H       
  49 H49            1.8574    -7.2016     0.3155 H       
  50 H50            1.5717    -8.7025    -0.6044 H       
  51 H51            3.9922    -6.8532    -0.8230 H       
  52 H52            3.9700    -8.5048    -0.1585 H       
  53 H53            3.4493    -7.8738    -4.2580 H       
  54 H54            3.7010    -6.4946    -3.1606 H       
  55 H55            7.9489    -8.4704    -0.8699 H       
  56 H56            7.0293    -9.8528    -4.8166 H       
  57 H57            1.5812     2.3372    -1.0282 H       
  58 H58            1.1412     3.0939     0.5216 H       
  59 H59            2.0507     1.5639     0.5047 H       
  60 H60           10.4184   -10.1942    -4.3905 H       
  61 H61            8.8185   -10.9657    -4.5055 H       
  62 H62            9.0610    -9.3207    -5.1406 H       
@<TRIPOS>BOND
   1    1    2 ar
   2    1   31 1
   3    1    6 ar
   4    2    3 ar
   5    2   34 1
   6    3    4 ar
   7    3    7 1
   8    4    5 ar
   9    4   35 1
  10    5    6 ar
  11    5   36 1
  12    6   30 1
  13    7    8 2
  14    7    9 1
  15    8   11 1
  16    9   10 2
  17    9   37 1
  18   10   11 1
  19   10   12 1
  20   11   15 1
  21   12   13 1
  22   12   14 1
  23   12   38 1
  24   13   39 1
  25   13   40 1
  26   13   41 1
  27   14   42 1
  28   14   43 1
  29   14   44 1
  30   15   16 1
  31   15   45 1
  32   15   46 1
  33   16   17 am
  34   16   18 2
  35   17   19 1
  36   17   20 1
  37   19   23 1
  38   19   47 1
  39   19   48 1
  40   20   21 1
  41   20   49 1
  42   20   50 1
  43   21   22 1
  44   21   51 1
  45   21   52 1
  46   22   23 1
  47   22   24 1
  48   23   53 1
  49   23   54 1
  50   24   25 ar
  51   24   26 ar
  52   25   29 ar
  53   26   27 ar
  54   27   28 ar
  55   27   55 1
  56   28   29 ar
  57   28   32 1
  58   29   56 1
  59   31   57 1
  60   31   58 1
  61   31   59 1
  62   32   33 1
  63   33   60 1
  64   33   61 1
  65   33   62 1

#	End of record

