#	Name: ASD01884946
#	Creating user name:	WinNT
#	Creation time:	15. 06. 2019 19:49

#	Modifying user name:	WinNT
#	Modification time:	15. 06. 2019 19:49

#	Program:	/corina/corina34_cracker 3.40 0067  02.08.2006

@<TRIPOS>MOLECULE
ASD01884946
  43   47    0    0    0
SMALL
NO_CHARGES


@<TRIPOS>ATOM
   1 C1            -0.0166     1.3745     0.0096 C.ar    
   2 C2             0.0021    -0.0041     0.0020 C.ar    
   3 C3            -1.1977    -0.7168     0.0101 C.ar    
   4 C4            -2.4129    -0.0322     0.0259 C.ar    
   5 C5            -2.4266     1.3463     0.0334 C.ar    
   6 C6            -1.2307     2.0546     0.0307 C.ar    
   7 C7            -1.1808    -2.1979     0.0015 C.2     
   8 C8            -1.6661    -2.9078     1.0839 C.2     
   9 C9            -0.6726    -2.9008    -1.1182 C.2     
  10 C10           -0.6590    -4.2468    -1.1243 C.2     
  11 N11           -1.1314    -4.9559    -0.0576 N.pl3   
  12 C12           -1.6371    -4.3121     1.0461 C.2     
  13 C13           -1.2394    -6.2874     0.2073 C.2     
  14 N14           -1.7711    -6.4110     1.3958 N.2     
  15 N15           -2.0110    -5.2521     1.9007 N.2     
  16 C16           -0.8227    -7.4134    -0.7036 C.3     
  17 N17           -1.2475     3.4502     0.0388 N.pl3   
  18 C18           -2.5249     4.1674     0.0502 C.3     
  19 C19           -2.5354     5.5824     0.6320 C.3     
  20 Cl20           1.4751     2.2624     0.0001 Cl      
  21 C21            0.2412    -8.3837    -0.1863 C.3     
  22 C22           -1.2168    -8.8345    -0.2959 C.3     
  23 C23           -2.6652     5.3753    -0.8783 C.3     
  24 C24           -2.2175    -2.1864     2.2866 C.3     
  25 F25           -3.6068    -2.0738     2.1664 F       
  26 F26           -1.9065    -2.9062     3.4453 F       
  27 F27           -1.6511    -0.9096     2.3648 F       
  28 H28            0.9443    -0.5318    -0.0105 H       
  29 H29           -3.3426    -0.5817     0.0318 H       
  30 H30           -3.3675     1.8764     0.0452 H       
  31 H31           -0.2951    -2.3549    -1.9702 H       
  32 H32           -0.2698    -4.7723    -1.9838 H       
  33 H33           -0.8150    -7.1787    -1.7680 H       
  34 H34           -0.4133     3.9453     0.0369 H       
  35 H35           -3.4089     3.5504     0.2111 H       
  36 H36           -3.4266     5.8965     1.1754 H       
  37 H37           -1.5920     5.9797     1.0063 H       
  38 H38            0.9487    -8.7876    -0.9105 H       
  39 H39            0.6398    -8.2076     0.8128 H       
  40 H40           -1.7774    -8.9550     0.6311 H       
  41 H41           -1.4685    -9.5350    -1.0922 H       
  42 H42           -1.8071     5.6363    -1.4977 H       
  43 H43           -3.6418     5.5531    -1.3286 H       
@<TRIPOS>BOND
   1    1    2 ar
   2    1   20 1
   3    1    6 ar
   4    2    3 ar
   5    2   28 1
   6    3    4 ar
   7    3    7 1
   8    4    5 ar
   9    4   29 1
  10    5    6 ar
  11    5   30 1
  12    6   17 1
  13    7    8 2
  14    7    9 1
  15    8   24 1
  16    8   12 1
  17    9   10 2
  18    9   31 1
  19   10   11 1
  20   10   32 1
  21   11   12 1
  22   11   13 1
  23   12   15 2
  24   13   14 2
  25   13   16 1
  26   14   15 1
  27   16   21 1
  28   16   22 1
  29   16   33 1
  30   17   18 1
  31   17   34 1
  32   18   19 1
  33   18   23 1
  34   18   35 1
  35   19   23 1
  36   19   36 1
  37   19   37 1
  38   21   22 1
  39   21   38 1
  40   21   39 1
  41   22   40 1
  42   22   41 1
  43   23   42 1
  44   23   43 1
  45   24   25 1
  46   24   26 1
  47   24   27 1

#	End of record

