#	Name: ASD01840250
#	Creating user name:	WinNT
#	Creation time:	15. 06. 2019 19:37

#	Modifying user name:	WinNT
#	Modification time:	15. 06. 2019 19:37

#	Program:	/corina/corina34_cracker 3.40 0067  02.08.2006

@<TRIPOS>MOLECULE
ASD01840250
  47   50    0    0    0
SMALL
NO_CHARGES


@<TRIPOS>ATOM
   1 C1            -2.3891     1.8037     1.3651 C.3     
   2 C2            -2.0558     0.3525     1.1330 C.ar    
   3 N3            -2.0336    -0.1297    -0.0977 N.ar    
   4 N4            -1.7572    -1.3534    -0.3552 N.ar    
   5 C5            -1.4699    -2.2373     0.6032 C.ar    
   6 S6            -1.0639    -3.9448     0.5024 S.3     
   7 C7            -0.8959    -4.0869     2.2413 C.2     
   8 C8            -0.5431    -5.3219     2.9401 C.2     
   9 O9            -0.4478    -5.3286     4.1539 O.2     
  10 N10           -0.3233    -6.4528     2.2406 N.am    
  11 C11            0.0303    -7.6901     2.9408 C.3     
  12 C12           -1.0950    -8.7407     2.9493 C.3     
  13 N13           -0.4937    -9.2483     1.7007 N.am    
  14 C14            0.8196    -8.6885     2.0747 C.3     
  15 C15           -0.9577    -9.9438     0.6436 C.2     
  16 O16           -2.1238   -10.2834     0.6042 O.2     
  17 O17           -0.1289   -10.2623    -0.3691 O.3     
  18 C18           -0.6379   -11.0385    -1.3622 C.ar    
  19 C19           -1.5058   -10.4910    -2.2953 C.ar    
  20 C20           -2.0229   -11.2821    -3.3061 C.ar    
  21 F21           -2.8679   -10.7490    -4.2154 F       
  22 C22           -1.6742   -12.6197    -3.3862 C.ar    
  23 C23           -0.8083   -13.1676    -2.4551 C.ar    
  24 F24           -0.4690   -14.4729    -2.5346 F       
  25 C25           -0.2853   -12.3772    -1.4466 C.ar    
  26 C26           -1.1363    -2.9009     2.8534 C.2     
  27 N27           -1.0706    -2.7339     4.2301 N.pl3   
  28 C28           -1.4678    -1.8217     1.9416 C.ar    
  29 C29           -1.7699    -0.4659     2.2036 C.ar    
  30 C30           -1.7837     0.0673     3.6131 C.3     
  31 H31           -1.4740     2.3952     1.3398 H       
  32 H32           -3.0672     2.1500     0.5851 H       
  33 H33           -2.8673     1.9156     2.3382 H       
  34 H34           -0.3992    -6.4474     1.2736 H       
  35 H35            0.4742    -7.5121     3.9202 H       
  36 H36           -1.0355    -9.4414     3.7821 H       
  37 H37           -2.0912    -8.3185     2.8172 H       
  38 H38            1.3520    -8.2247     1.2443 H       
  39 H39            1.4414    -9.3739     2.6506 H       
  40 H40           -1.7782    -9.4478    -2.2329 H       
  41 H41           -2.0783   -13.2362    -4.1754 H       
  42 H42            0.3939   -12.8037    -0.7233 H       
  43 H43           -0.5815    -3.3715     4.7732 H       
  44 H44           -1.5139    -1.9795     4.6488 H       
  45 H45           -2.7569    -0.1250     4.0647 H       
  46 H46           -1.0079    -0.4283     4.1967 H       
  47 H47           -1.5963     1.1410     3.5972 H       
@<TRIPOS>BOND
   1    1    2 1
   2    1   31 1
   3    1   32 1
   4    1   33 1
   5    2   29 ar
   6    2    3 ar
   7    3    4 ar
   8    4    5 ar
   9    5   28 ar
  10    5    6 1
  11    6    7 1
  12    7    8 1
  13    7   26 2
  14    8    9 2
  15    8   10 am
  16   10   11 1
  17   10   34 1
  18   11   14 1
  19   11   12 1
  20   11   35 1
  21   12   13 1
  22   12   36 1
  23   12   37 1
  24   13   14 1
  25   13   15 am
  26   14   38 1
  27   14   39 1
  28   15   16 2
  29   15   17 1
  30   17   18 1
  31   18   25 ar
  32   18   19 ar
  33   19   20 ar
  34   19   40 1
  35   20   21 1
  36   20   22 ar
  37   22   23 ar
  38   22   41 1
  39   23   24 1
  40   23   25 ar
  41   25   42 1
  42   26   27 1
  43   26   28 1
  44   27   43 1
  45   27   44 1
  46   28   29 ar
  47   29   30 1
  48   30   45 1
  49   30   46 1
  50   30   47 1

#	End of record

