#	Name: ASD01911884
#	Creating user name:	WinNT
#	Creation time:	15. 06. 2019 19:58

#	Modifying user name:	WinNT
#	Modification time:	15. 06. 2019 19:58

#	Program:	/corina/corina34_cracker 3.40 0067  02.08.2006

@<TRIPOS>MOLECULE
ASD01911884
  36   38    0    0    0
SMALL
NO_CHARGES


@<TRIPOS>ATOM
   1 C1            -1.0608    -0.5020    -2.0826 C.ar    
   2 C2            -1.0563     0.0562    -0.8080 C.ar    
   3 C3            -1.0048     1.4364    -0.6770 C.ar    
   4 N4            -0.9608     2.2126    -1.7417 N.ar    
   5 C5            -0.9636     1.7169    -2.9633 C.ar    
   6 C6            -1.0135     0.3502    -3.1750 C.ar    
   7 O7            -1.1020    -0.7393     0.2928 O.3     
   8 C8            -1.1526    -2.0843     0.1063 C.ar    
   9 C9            -0.0022    -2.7818    -0.2363 C.ar    
  10 C10           -0.0521    -4.1494    -0.4263 C.ar    
  11 C11           -1.2466    -4.8273    -0.2760 C.ar    
  12 C12           -2.4009    -4.1348     0.0672 C.ar    
  13 C13           -2.3517    -2.7616     0.2636 C.ar    
  14 N14           -3.6100    -4.8209     0.2189 N.am    
  15 C15           -4.7722    -4.2161    -0.0972 C.2     
  16 C16           -6.0561    -4.9017     0.1605 C.ar    
  17 O17           -4.7646    -3.1068    -0.5942 O.2     
  18 C18           -7.2614    -4.2781    -0.1656 C.ar    
  19 C19           -8.4568    -4.9232     0.0769 C.ar    
  20 C20           -8.4630    -6.1854     0.6425 C.ar    
  21 C21           -7.2710    -6.8104     0.9687 C.ar    
  22 C22           -6.0681    -6.1780     0.7259 C.ar    
  23 Cl23          -7.2892    -8.3945     1.6788 Cl      
  24 Cl24          -1.0161    -0.2893    -4.7889 Cl      
  25 H25           -1.0959    -1.5730    -2.2174 H       
  26 H26           -1.0012     1.8798     0.3078 H       
  27 H27           -0.9266     2.3863    -3.8101 H       
  28 H28            0.9330    -2.2547    -0.3549 H       
  29 H29            0.8443    -4.6896    -0.6931 H       
  30 H30           -1.2830    -5.8963    -0.4257 H       
  31 H31           -3.2475    -2.2208     0.5308 H       
  32 H32           -3.6122    -5.7321     0.5516 H       
  33 H33           -7.2585    -3.2922    -0.6067 H       
  34 H34           -9.3898    -4.4413    -0.1753 H       
  35 H35           -9.4015    -6.6856     0.8308 H       
  36 H36           -5.1388    -6.6659     0.9806 H       
@<TRIPOS>BOND
   1    1    2 ar
   2    1    6 ar
   3    1   25 1
   4    2    3 ar
   5    2    7 1
   6    3    4 ar
   7    3   26 1
   8    4    5 ar
   9    5    6 ar
  10    5   27 1
  11    6   24 1
  12    7    8 1
  13    8    9 ar
  14    8   13 ar
  15    9   10 ar
  16    9   28 1
  17   10   11 ar
  18   10   29 1
  19   11   12 ar
  20   11   30 1
  21   12   13 ar
  22   12   14 1
  23   13   31 1
  24   14   15 am
  25   14   32 1
  26   15   16 1
  27   15   17 2
  28   16   18 ar
  29   16   22 ar
  30   18   19 ar
  31   18   33 1
  32   19   20 ar
  33   19   34 1
  34   20   21 ar
  35   20   35 1
  36   21   22 ar
  37   21   23 1
  38   22   36 1

#	End of record

