#	Name: ASD01028488
#	Creating user name:	WinNT
#	Creation time:	15. 06. 2019 18:57

#	Modifying user name:	WinNT
#	Modification time:	15. 06. 2019 18:57

#	Program:	/corina/corina34_cracker 3.40 0067  02.08.2006

@<TRIPOS>MOLECULE
ASD01028488
  65   69    0    0    0
SMALL
NO_CHARGES


@<TRIPOS>ATOM
   1 C1            -0.0171     1.4118     0.0098 C.ar    
   2 C2             0.0021    -0.0041     0.0020 C.ar    
   3 C3             1.2105     2.1116     0.0018 C.ar    
   4 C4             2.3793     1.3714    -0.0133 C.ar    
   5 C5             2.3160    -0.0162    -0.0202 C.ar    
   6 N6             1.1704    -0.6565    -0.0123 N.ar    
   7 O7             1.2420     3.4670     0.0084 O.3     
   8 C8             2.5299     4.0861    -0.0005 C.3     
   9 C9             2.3673     5.5842     0.0086 C.2     
  10 N10            2.2907     6.3791     1.1112 N.pl3   
  11 C11            2.1481     7.6616     0.6409 C.2     
  12 N12            2.1450     7.5867    -0.6801 N.2     
  13 N13            2.2796     6.3592    -1.0413 N.2     
  14 C14            2.3283     6.1317     2.4501 C.2     
  15 C15            2.2243     7.1562     3.3431 C.2     
  16 C16            2.0760     8.4874     2.8818 C.2     
  17 C17            2.0397     8.7352     1.5478 C.2     
  18 C18           -1.2152    -0.7043     0.0100 C.ar    
  19 C19           -2.4012    -0.0065     0.0251 C.ar    
  20 C20           -2.4085     1.3917     0.0322 C.ar    
  21 C21           -1.2431     2.0938     0.0309 C.ar    
  22 O22           -3.5786    -0.6840     0.0328 O.3     
  23 C23           -4.7758     0.0961     0.0485 C.3     
  24 C24            2.2657     6.8779     4.7944 C.2     
  25 C25            3.3418     6.3048     5.2768 C.2     
  26 C26            3.5112     5.9493     6.7278 C.3     
  27 N27            2.4333     6.5754     7.5068 N.am    
  28 C28            1.0718     6.5147     6.9477 C.3     
  29 C29            1.0765     7.2754     5.6173 C.3     
  30 C30            2.6809     7.1811     8.6851 C.2     
  31 O31            3.9360     7.2212     9.1708 O.3     
  32 O32            1.7714     7.6909     9.3090 O.2     
  33 C33            4.1285     7.8900    10.4451 C.3     
  34 C34            3.2941     7.1900    11.5197 C.3     
  35 C35            5.6079     7.8346    10.8317 C.3     
  36 C36            3.6866     9.3500    10.3268 C.3     
  37 H37            3.3370     1.8705    -0.0202 H       
  38 H38            3.2348    -0.5838    -0.0321 H       
  39 H39            3.0883     3.7758     0.8827 H       
  40 H40            3.0716     3.7849    -0.8972 H       
  41 H41            2.4409     5.1183     2.8061 H       
  42 H42            1.9931     9.3006     3.5876 H       
  43 H43            1.9273     9.7460     1.1844 H       
  44 H44           -1.2205    -1.7843     0.0039 H       
  45 H45           -3.3501     1.9205     0.0433 H       
  46 H46           -1.2617     3.1736     0.0364 H       
  47 H47           -5.6412    -0.5666     0.0533 H       
  48 H48           -4.7911     0.7202     0.9420 H       
  49 H49           -4.8082     0.7297    -0.8378 H       
  50 H50            4.1486     6.0759     4.5963 H       
  51 H51            3.4642     4.8667     6.8455 H       
  52 H52            4.4756     6.3136     7.0819 H       
  53 H53            0.7877     5.4756     6.7813 H       
  54 H54            0.3693     6.9838     7.6366 H       
  55 H55            1.1093     8.3469     5.8148 H       
  56 H56            0.1665     7.0413     5.0649 H       
  57 H57            3.6089     6.1499    11.6039 H       
  58 H58            3.4386     7.6920    12.4763 H       
  59 H59            2.2402     7.2294    11.2442 H       
  60 H60            6.2024     8.3333    10.0662 H       
  61 H61            5.7524     8.3366    11.7884 H       
  62 H62            5.9227     6.7945    10.9160 H       
  63 H63            2.6327     9.3894    10.0514 H       
  64 H64            3.8312     9.8520    11.2835 H       
  65 H65            4.2811     9.8486     9.5613 H       
@<TRIPOS>BOND
   1    1    2 ar
   2    1    3 ar
   3    1   21 ar
   4    2   18 ar
   5    2    6 ar
   6    3    4 ar
   7    3    7 1
   8    4    5 ar
   9    4   37 1
  10    5    6 ar
  11    5   38 1
  12    7    8 1
  13    8    9 1
  14    8   39 1
  15    8   40 1
  16    9   10 1
  17    9   13 2
  18   10   11 1
  19   10   14 1
  20   11   12 2
  21   11   17 1
  22   12   13 1
  23   14   15 2
  24   14   41 1
  25   15   16 1
  26   15   24 1
  27   16   17 2
  28   16   42 1
  29   17   43 1
  30   18   19 ar
  31   18   44 1
  32   19   20 ar
  33   19   22 1
  34   20   21 ar
  35   20   45 1
  36   21   46 1
  37   22   23 1
  38   23   47 1
  39   23   48 1
  40   23   49 1
  41   24   25 2
  42   24   29 1
  43   25   26 1
  44   25   50 1
  45   26   27 1
  46   26   51 1
  47   26   52 1
  48   27   28 1
  49   27   30 am
  50   28   29 1
  51   28   53 1
  52   28   54 1
  53   29   55 1
  54   29   56 1
  55   30   31 1
  56   30   32 2
  57   31   33 1
  58   33   34 1
  59   33   35 1
  60   33   36 1
  61   34   57 1
  62   34   58 1
  63   34   59 1
  64   35   60 1
  65   35   61 1
  66   35   62 1
  67   36   63 1
  68   36   64 1
  69   36   65 1

#	End of record

