#	Name: ASD01941086
#	Creating user name:	WinNT
#	Creation time:	15. 06. 2019 20:13

#	Modifying user name:	WinNT
#	Modification time:	15. 06. 2019 20:13

#	Program:	/corina/corina34_cracker 3.40 0067  02.08.2006

@<TRIPOS>MOLECULE
ASD01941086
  47   49    0    0    0
SMALL
NO_CHARGES


@<TRIPOS>ATOM
   1 C1             0.0564     0.8922    -0.2033 C.ar    
   2 C2            -0.9785     0.1738    -0.7901 C.ar    
   3 C3            -2.2321     0.1613    -0.2033 C.ar    
   4 C4            -2.4638     0.8640     0.9717 C.ar    
   5 C5            -1.4490     1.5804     1.5653 C.ar    
   6 C6            -0.1760     1.5982     0.9880 C.ar    
   7 F7            -3.2356    -0.5379    -0.7771 F       
   8 F8            -0.7611    -0.5120    -1.9336 F       
   9 C9             0.9130     2.3631     1.6200 C.2     
  10 O10            2.0447     2.2853     1.1814 O.2     
  11 N11            0.6552     3.1490     2.6841 N.am    
  12 N12            1.3171     0.9072    -0.7900 N.pl3   
  13 C13            2.1921    -0.1667    -0.5950 C.ar    
  14 C14            3.4782    -0.1227    -1.1228 C.ar    
  15 C15            4.3400    -1.1864    -0.9278 C.ar    
  16 C16            3.9233    -2.2926    -0.2093 C.ar    
  17 C17            2.6444    -2.3386     0.3161 C.ar    
  18 C18            1.7806    -1.2766     0.1307 C.ar    
  19 F19            3.8847     0.9574    -1.8253 F       
  20 I20            5.2317    -3.9024     0.0832 I       
  21 C21            1.4490     3.9661     3.6142 C.3     
  22 C22            0.2086     4.8483     3.8125 C.3     
  23 C23           -0.5445     3.5721     3.4220 C.3     
  24 C24           -0.0178     5.2966     5.2577 C.3     
  25 O25            0.0864     5.9093     2.8631 O.3     
  26 H26            0.8001     5.9465     5.5689 H       
  27 N27           -1.2877     6.0293     5.3498 N.3     
  28 C28           -2.8671     7.2336     6.7824 C.3     
  29 C29           -1.5389     6.4762     6.7264 C.3     
  30 H30           -3.4453     0.8487     1.4221 H       
  31 H31           -1.6353     2.1250     2.4792 H       
  32 H32            1.5898     1.6623    -1.3344 H       
  33 H33            5.3389    -1.1536    -1.3371 H       
  34 H34            2.3224    -3.2040     0.8762 H       
  35 H35            0.7825    -1.3138     0.5418 H       
  36 H36            1.7492     3.4305     4.5148 H       
  37 H37            2.2792     4.4856     3.1356 H       
  38 H38           -1.4077     3.7560     2.7824 H       
  39 H39           -0.7774     2.9288     4.2705 H       
  40 H40           -0.0547     4.4224     5.9077 H       
  41 H41           -0.6959     6.4631     2.9907 H       
  42 H42           -1.3033     6.8079     4.7083 H       
  43 H43           -2.8197     8.0996     6.1222 H       
  44 H44           -3.6744     6.5755     6.4610 H       
  45 H45           -3.0535     7.5652     7.8038 H       
  46 H46           -1.5864     5.6102     7.3867 H       
  47 H47           -0.7316     7.1343     7.0478 H       
@<TRIPOS>BOND
   1    1    2 ar
   2    1   12 1
   3    1    6 ar
   4    2    3 ar
   5    2    8 1
   6    3    4 ar
   7    3    7 1
   8    4    5 ar
   9    4   30 1
  10    5    6 ar
  11    5   31 1
  12    6    9 1
  13    9   10 2
  14    9   11 am
  15   11   21 1
  16   11   23 1
  17   12   13 1
  18   12   32 1
  19   13   14 ar
  20   13   18 ar
  21   14   15 ar
  22   14   19 1
  23   15   16 ar
  24   15   33 1
  25   16   17 ar
  26   16   20 1
  27   17   18 ar
  28   17   34 1
  29   18   35 1
  30   21   22 1
  31   21   36 1
  32   21   37 1
  33   22   23 1
  34   22   24 1
  35   22   25 1
  36   23   38 1
  37   23   39 1
  38   24   26 1
  39   24   27 1
  40   24   40 1
  41   25   41 1
  42   27   29 1
  43   27   42 1
  44   28   29 1
  45   28   43 1
  46   28   44 1
  47   28   45 1
  48   29   46 1
  49   29   47 1

#	End of record

