#	Name: ASD08830252
#	Creating user name:	WinNT
#	Creation time:	15. 06. 2019 21:20

#	Modifying user name:	WinNT
#	Modification time:	15. 06. 2019 21:20

#	Program:	/corina/corina34_cracker 3.40 0067  02.08.2006

@<TRIPOS>MOLECULE
ASD08830252
  65   69    0    0    0
SMALL
NO_CHARGES


@<TRIPOS>ATOM
   1 C1            -0.2117     1.1063    -0.6100 C.ar    
   2 C2             0.2626    -0.1845    -0.4916 C.ar    
   3 C3             1.4801    -0.4248     0.1452 C.ar    
   4 C4             2.2145     0.6409     0.6600 C.ar    
   5 C5             1.7307     1.9348     0.5363 C.ar    
   6 C6             0.5166     2.1644    -0.0994 C.ar    
   7 C7             1.9906    -1.8103     0.2742 C.ar    
   8 C8             1.1276    -2.8584     0.6286 C.ar    
   9 C9             1.6563    -4.1398     0.7363 C.ar    
  10 N10            2.9453    -4.3278     0.5031 N.ar    
  11 C11            3.7341    -3.3169     0.1702 C.ar    
  12 N12            3.2743    -2.0820     0.0504 N.ar    
  13 N13            5.0797    -3.5609    -0.0647 N.pl3   
  14 N14            2.4645     3.0082     1.0515 N.am    
  15 C15            3.8107     2.9966     0.9877 C.2     
  16 C16            4.5780     4.1694     1.4334 C.2     
  17 C17            5.9066     4.1580     1.3703 C.2     
  18 O18            4.3909     2.0164     0.5614 O.2     
  19 N19           -0.2295    -2.6201     0.8678 N.pl3   
  20 C20           -0.6335    -2.0233     2.0642 C.ar    
  21 C21           -1.9828    -1.8025     2.3113 C.ar    
  22 C22           -2.3787    -1.2126     3.4955 C.ar    
  23 C23           -1.4339    -0.8417     4.4349 C.ar    
  24 C24           -0.0900    -1.0596     4.1920 C.ar    
  25 C25            0.3126    -1.6543     3.0125 C.ar    
  26 C26            5.6113    -4.8358     0.1680 C.ar    
  27 C27            6.6370    -5.3174    -0.6347 C.ar    
  28 C28            7.1611    -6.5741    -0.4054 C.ar    
  29 C29            6.6625    -7.3564     0.6281 C.ar    
  30 C30            5.6368    -6.8747     1.4308 C.ar    
  31 C31            5.1166    -5.6157     1.2050 C.ar    
  32 N32            7.1934    -8.6303     0.8603 N.3     
  33 C33            6.5237    -9.2813     1.9956 C.3     
  34 C34            7.0922   -10.6912     2.1765 C.3     
  35 O35            8.5084   -10.6091     2.3580 O.3     
  36 C36            9.1928    -9.9810     1.2705 C.3     
  37 C37            8.6455    -8.5639     1.0805 C.3     
  38 H38           -1.1526     1.2905    -1.1071 H       
  39 H39           -0.3092    -1.0086    -0.8918 H       
  40 H40            3.1576     0.4602     1.1543 H       
  41 H41            0.1410     3.1724    -0.1951 H       
  42 H42            1.0229    -4.9715     1.0073 H       
  43 H43            5.6521    -2.8487    -0.3901 H       
  44 H44            2.0045     3.7609     1.4549 H       
  45 H45            4.0628     5.0398     1.8119 H       
  46 H46            6.4219     3.2875     0.9918 H       
  47 H47            6.4702     5.0192     1.6977 H       
  48 H48           -0.8903    -2.8694     0.2028 H       
  49 H49           -2.7211    -2.0915     1.5780 H       
  50 H50           -3.4273    -1.0403     3.6881 H       
  51 H51           -1.7463    -0.3806     5.3602 H       
  52 H52            0.6452    -0.7684     4.9276 H       
  53 H53            1.3623    -1.8244     2.8235 H       
  54 H54            7.0245    -4.7092    -1.4387 H       
  55 H55            7.9586    -6.9488    -1.0299 H       
  56 H56            5.2488    -7.4831     2.2343 H       
  57 H57            4.3189    -5.2411     1.8293 H       
  58 H58            6.6960    -8.7004     2.9017 H       
  59 H59            5.4531    -9.3429     1.8001 H       
  60 H60            6.6395   -11.1567     3.0520 H       
  61 H61            6.8727   -11.2885     1.2915 H       
  62 H62           10.2592    -9.9328     1.4907 H       
  63 H63            9.0343   -10.5576     0.3592 H       
  64 H64            9.1238    -8.1018     0.2169 H       
  65 H65            8.8517    -7.9715     1.9719 H       
@<TRIPOS>BOND
   1    1    2 ar
   2    1    6 ar
   3    1   38 1
   4    2    3 ar
   5    2   39 1
   6    3    4 ar
   7    3    7 1
   8    4    5 ar
   9    4   40 1
  10    5    6 ar
  11    5   14 1
  12    6   41 1
  13    7    8 ar
  14    7   12 ar
  15    8    9 ar
  16    8   19 1
  17    9   10 ar
  18    9   42 1
  19   10   11 ar
  20   11   12 ar
  21   11   13 1
  22   13   26 1
  23   13   43 1
  24   14   15 am
  25   14   44 1
  26   15   16 1
  27   15   18 2
  28   16   17 2
  29   16   45 1
  30   17   46 1
  31   17   47 1
  32   19   20 1
  33   19   48 1
  34   20   21 ar
  35   20   25 ar
  36   21   22 ar
  37   21   49 1
  38   22   23 ar
  39   22   50 1
  40   23   24 ar
  41   23   51 1
  42   24   25 ar
  43   24   52 1
  44   25   53 1
  45   26   27 ar
  46   26   31 ar
  47   27   28 ar
  48   27   54 1
  49   28   29 ar
  50   28   55 1
  51   29   30 ar
  52   29   32 1
  53   30   31 ar
  54   30   56 1
  55   31   57 1
  56   32   33 1
  57   32   37 1
  58   33   34 1
  59   33   58 1
  60   33   59 1
  61   34   35 1
  62   34   60 1
  63   34   61 1
  64   35   36 1
  65   36   37 1
  66   36   62 1
  67   36   63 1
  68   37   64 1
  69   37   65 1

#	End of record

