#	Name: ASD01880007
#	Creating user name:	WinNT
#	Creation time:	15. 06. 2019 19:39

#	Modifying user name:	WinNT
#	Modification time:	15. 06. 2019 19:39

#	Program:	/corina/corina34_cracker 3.40 0067  02.08.2006

@<TRIPOS>MOLECULE
ASD01880007
  59   61    0    0    0
SMALL
NO_CHARGES


@<TRIPOS>ATOM
   1 N1            -0.0154     1.2831     0.0091 N.pl3   
   2 N2             0.0021    -0.0041     0.0020 N.2     
   3 N3             1.2275    -0.4062    -0.0118 N.2     
   4 C4             2.0048     0.6860    -0.0134 C.2     
   5 N5             1.1948     1.7260    -0.0001 N.2     
   6 C6             3.4887     0.7182    -0.0270 C.ar    
   7 C7             4.2126    -0.4724    -0.0403 C.ar    
   8 C8             5.5913    -0.4396    -0.0529 C.ar    
   9 C9             6.2579     0.7781    -0.0517 C.ar    
  10 C10            5.5393     1.9658    -0.0380 C.ar    
  11 C11            4.1604     1.9390    -0.0321 C.ar    
  12 C12           14.7737     5.4928    -0.1001 C.ar    
  13 C13           14.1443     6.7347    -0.0873 C.ar    
  14 C14           14.8818     7.8828    -0.0877 C.ar    
  15 C15           16.2816     7.8179    -0.1005 C.ar    
  16 C16           16.9205     6.5646    -0.1130 C.ar    
  17 C17           16.1590     5.4091    -0.1072 C.ar    
  18 C18           16.8331     4.0614    -0.1200 C.3     
  19 C19           17.0793     3.6006     1.3180 C.3     
  20 C20           17.7638     2.2323     1.3051 C.3     
  21 O21           18.2744     6.4892    -0.1259 O.3     
  22 C22           17.0757     9.0490    -0.1014 C.2     
  23 C23           16.3874    10.3896    -0.0885 C.3     
  24 O24           18.2875     8.9892    -0.1125 O.2     
  25 O25            7.6163     0.8075    -0.0636 O.3     
  26 C26            8.2373     2.0945    -0.0617 C.3     
  27 C27           11.9438     3.1373    -0.0886 C.3     
  28 C28            9.7581     1.9269    -0.0762 C.3     
  29 C29           10.4230     3.3049    -0.0741 C.3     
  30 C30           12.6087     4.5152    -0.0865 C.3     
  31 O31           14.0291     4.3587    -0.1001 O.3     
  32 H32           -0.8142     1.8333     0.0160 H       
  33 H33            3.6945    -1.4200    -0.0405 H       
  34 H34            6.1528    -1.3621    -0.0632 H       
  35 H35            6.0605     2.9118    -0.0367 H       
  36 H36            3.6018     2.8633    -0.0214 H       
  37 H37           13.0658     6.7897    -0.0774 H       
  38 H38           14.3863     8.8424    -0.0784 H       
  39 H39           16.1934     3.3399    -0.6282 H       
  40 H40           17.7851     4.1363    -0.6455 H       
  41 H41           17.7191     4.3221     1.8263 H       
  42 H42           16.1273     3.5257     1.8436 H       
  43 H43           17.1240     1.5108     0.7968 H       
  44 H44           18.7158     2.3072     0.7795 H       
  45 H45           17.9392     1.9040     2.3296 H       
  46 H46           18.6752     6.4627     0.7537 H       
  47 H47           16.2307    10.7076     0.9423 H       
  48 H48           17.0086    11.1219    -0.6042 H       
  49 H49           15.4252    10.3089    -0.5941 H       
  50 H50            7.9246     2.6502    -0.9457 H       
  51 H51            7.9404     2.6399     0.8342 H       
  52 H52           12.2565     2.5816     0.7954 H       
  53 H53           12.2407     2.5919    -0.9845 H       
  54 H54           10.0708     1.3712     0.8078 H       
  55 H55           10.0550     1.3816    -0.9720 H       
  56 H56           10.1261     3.8502     0.8217 H       
  57 H57           10.1103     3.8606    -0.9581 H       
  58 H58           12.2960     5.0709    -0.9706 H       
  59 H59           12.3118     5.0606     0.8093 H       
@<TRIPOS>BOND
   1    1    2 1
   2    1    5 1
   3    1   32 1
   4    2    3 2
   5    3    4 1
   6    4    5 2
   7    4    6 1
   8    6    7 ar
   9    6   11 ar
  10    7    8 ar
  11    7   33 1
  12    8    9 ar
  13    8   34 1
  14    9   10 ar
  15    9   25 1
  16   10   11 ar
  17   10   35 1
  18   11   36 1
  19   12   13 ar
  20   12   31 1
  21   12   17 ar
  22   13   14 ar
  23   13   37 1
  24   14   15 ar
  25   14   38 1
  26   15   16 ar
  27   15   22 1
  28   16   17 ar
  29   16   21 1
  30   17   18 1
  31   18   19 1
  32   18   39 1
  33   18   40 1
  34   19   20 1
  35   19   41 1
  36   19   42 1
  37   20   43 1
  38   20   44 1
  39   20   45 1
  40   21   46 1
  41   22   23 1
  42   22   24 2
  43   23   47 1
  44   23   48 1
  45   23   49 1
  46   25   26 1
  47   26   28 1
  48   26   50 1
  49   26   51 1
  50   27   30 1
  51   27   29 1
  52   27   52 1
  53   27   53 1
  54   28   29 1
  55   28   54 1
  56   28   55 1
  57   29   56 1
  58   29   57 1
  59   30   31 1
  60   30   58 1
  61   30   59 1

#	End of record

