#	Name: ASD01028187
#	Creating user name:	WinNT
#	Creation time:	15. 06. 2019 18:56

#	Modifying user name:	WinNT
#	Modification time:	15. 06. 2019 18:56

#	Program:	/corina/corina34_cracker 3.40 0067  02.08.2006

@<TRIPOS>MOLECULE
ASD01028187
  52   56    0    0    0
SMALL
NO_CHARGES


@<TRIPOS>ATOM
   1 N1             1.3168     3.3818     0.0139 N.am    
   2 C2             2.7027     3.8725     0.0062 C.3     
   3 C3             3.6263     2.6364    -0.0187 C.3     
   4 C4             2.7069     1.5273    -0.5949 C.3     
   5 C5             1.3373     1.9078     0.0208 C.3     
   6 C6             0.2109     4.1521     0.0196 C.2     
   7 O7             0.3137     5.3635     0.0187 O.2     
   8 N8            -1.0092     3.5794     0.0265 N.am    
   9 C9            -2.1505     4.3717     0.1416 C.ar    
  10 C10           -3.4055     3.7876     0.0393 C.ar    
  11 C11           -4.5343     4.5897     0.1561 C.ar    
  12 C12           -4.3571     5.9559     0.3724 C.ar    
  13 C13           -3.0786     6.4631     0.4628 C.ar    
  14 N14           -2.0264     5.6732     0.3528 N.ar    
  15 O15           -5.7790     4.0564     0.0615 O.3     
  16 C16           -6.8818     4.9555     0.1938 C.3     
  17 C17           -9.9670     3.0325     0.4891 C.2     
  18 C18          -10.8923     2.3455     1.2976 C.2     
  19 C19          -10.6754     2.2729     2.6374 C.2     
  20 C20           -9.5351     2.8813     3.2036 C.2     
  21 N21           -8.6700     3.5224     2.4493 N.2     
  22 N22           -8.8652     3.6147     1.0698 N.pl3   
  23 N23           -8.8252     3.9595    -1.0501 N.2     
  24 N24           -9.8874     3.2731    -0.8094 N.2     
  25 C25           -8.1730     4.1896     0.0622 C.2     
  26 C26           -9.3093     2.7957     4.6675 C.ar    
  27 C27           -8.1867     3.3926     5.2380 C.ar    
  28 C28           -7.9816     3.3099     6.6003 C.ar    
  29 C29           -8.8876     2.6356     7.3990 C.ar    
  30 C30          -10.0034     2.0408     6.8380 C.ar    
  31 C31          -10.2219     2.1230     5.4777 C.ar    
  32 H32            2.8752     4.4822    -0.8807 H       
  33 H33            2.8931     4.4595     0.9048 H       
  34 H34            4.4813     2.8070    -0.6729 H       
  35 H35            3.9551     2.3803     0.9884 H       
  36 H36            2.6727     1.5745    -1.6833 H       
  37 H37            3.0263     0.5411    -0.2580 H       
  38 H38            1.2626     1.5321     1.0413 H       
  39 H39            0.5245     1.5142    -0.5896 H       
  40 H40           -1.0931     2.6160    -0.0488 H       
  41 H41           -3.5033     2.7252    -0.1289 H       
  42 H42           -5.2119     6.6091     0.4677 H       
  43 H43           -2.9357     7.5204     0.6302 H       
  44 H44           -6.8429     5.4369     1.1710 H       
  45 H45           -6.8280     5.7139    -0.5872 H       
  46 H46          -11.7637     1.8824     0.8589 H       
  47 H47          -11.3771     1.7491     3.2696 H       
  48 H48           -7.4784     3.9188     4.6152 H       
  49 H49           -7.1120     3.7721     7.0435 H       
  50 H50           -8.7230     2.5729     8.4645 H       
  51 H51          -10.7071     1.5150     7.4662 H       
  52 H52          -11.0959     1.6624     5.0414 H       
@<TRIPOS>BOND
   1    1    2 1
   2    1    5 1
   3    1    6 am
   4    2    3 1
   5    2   32 1
   6    2   33 1
   7    3    4 1
   8    3   34 1
   9    3   35 1
  10    4    5 1
  11    4   36 1
  12    4   37 1
  13    5   38 1
  14    5   39 1
  15    6    7 2
  16    6    8 am
  17    8    9 1
  18    8   40 1
  19    9   10 ar
  20    9   14 ar
  21   10   11 ar
  22   10   41 1
  23   11   12 ar
  24   11   15 1
  25   12   13 ar
  26   12   42 1
  27   13   14 ar
  28   13   43 1
  29   15   16 1
  30   16   25 1
  31   16   44 1
  32   16   45 1
  33   17   18 1
  34   17   22 1
  35   17   24 2
  36   18   19 2
  37   18   46 1
  38   19   20 1
  39   19   47 1
  40   20   21 2
  41   20   26 1
  42   21   22 1
  43   22   25 1
  44   23   24 1
  45   23   25 2
  46   26   27 ar
  47   26   31 ar
  48   27   28 ar
  49   27   48 1
  50   28   29 ar
  51   28   49 1
  52   29   30 ar
  53   29   50 1
  54   30   31 ar
  55   30   51 1
  56   31   52 1

#	End of record

