#	Name: ASD01820059
#	Creating user name:	WinNT
#	Creation time:	15. 06. 2019 19:36

#	Modifying user name:	WinNT
#	Modification time:	15. 06. 2019 19:36

#	Program:	/corina/corina34_cracker 3.40 0067  02.08.2006

@<TRIPOS>MOLECULE
ASD01820059
  57   60    0    0    0
SMALL
NO_CHARGES


@<TRIPOS>ATOM
   1 C1            -0.0167     1.3781     0.0096 C.ar    
   2 C2             0.0021    -0.0041     0.0020 C.ar    
   3 C3             1.2063    -0.6904    -0.0131 C.ar    
   4 C4             2.3989     0.0151    -0.0207 C.ar    
   5 C5             2.3798     1.4244    -0.0130 C.ar    
   6 C6             1.1684     2.0970     0.0022 C.ar    
   7 C7             3.8259    -0.3700    -0.0364 C.2     
   8 N8             4.5720     0.7494    -0.0375 N.am    
   9 C9             3.7959     1.8481    -0.0242 C.2     
  10 C10            6.0368     0.7693    -0.0518 C.3     
  11 C11            6.5325     0.7843    -1.4992 C.3     
  12 C12            8.0623     0.8051    -1.5141 C.3     
  13 N13            8.5383     0.8195    -2.9038 N.4     
  14 C14           10.0071     0.8395    -2.9181 C.3     
  15 C15           10.5028     0.8545    -4.3655 C.3     
  16 C16           12.0326     0.8753    -4.3804 C.3     
  17 N17           12.5073     0.8896    -5.7663 N.am    
  18 C18           12.7389     2.0061    -6.4801 C.2     
  19 C19           13.2050     1.6157    -7.8274 C.ar    
  20 C20           13.2241     0.2064    -7.8354 C.ar    
  21 C21           12.7744    -0.2119    -6.4909 C.2     
  22 C22           13.5852     2.3164    -8.9607 C.ar    
  23 C23           13.9818     1.6255   -10.0950 C.ar    
  24 C24           14.0001     0.2434   -10.1030 C.ar    
  25 C25           13.6236    -0.4709    -8.9764 C.ar    
  26 O26            4.1923     2.9960    -0.0224 O.2     
  27 O27            4.2533    -1.5068    -0.0462 O.2     
  28 O28           12.6586    -1.3582    -6.1069 O.2     
  29 O29           12.5896     3.1444    -6.0839 O.2     
  30 C30            8.0581    -0.3826    -3.5983 C.3     
  31 C31            8.0256     2.0160    -3.5846 C.3     
  32 H32           -0.9613     1.9015     0.0169 H       
  33 H33           -0.9280    -0.5530     0.0083 H       
  34 H34            1.2149    -1.7703    -0.0187 H       
  35 H35            1.1477     3.1767     0.0078 H       
  36 H36            6.3931     1.6613     0.4635 H       
  37 H37            6.4172    -0.1185     0.4534 H       
  38 H38            6.1762    -0.1077    -2.0145 H       
  39 H39            6.1521     1.6721    -2.0043 H       
  40 H40            8.4186     1.6971    -0.9988 H       
  41 H41            8.4427    -0.0827    -1.0089 H       
  42 H42           10.3634     1.7315    -2.4028 H       
  43 H43           10.3875    -0.0483    -2.4129 H       
  44 H44           10.1465    -0.0375    -4.8808 H       
  45 H45           10.1224     1.7423    -4.8707 H       
  46 H46           12.3889     1.7673    -3.8651 H       
  47 H47           12.4130    -0.0125    -3.8753 H       
  48 H48           13.5722     3.3964    -8.9603 H       
  49 H49           14.2783     2.1709   -10.9788 H       
  50 H50           14.3105    -0.2836   -10.9932 H       
  51 H51           13.6400    -1.5507    -8.9883 H       
  52 H52            6.9683    -0.3974    -3.5877 H       
  53 H53            8.4113    -0.3719    -4.6294 H       
  54 H54            8.4385    -1.2704    -3.0931 H       
  55 H55            8.3819     2.9080    -3.0693 H       
  56 H56            8.3788     2.0267    -4.6157 H       
  57 H57            6.9358     2.0012    -3.5740 H       
@<TRIPOS>BOND
   1    1    2 ar
   2    1    6 ar
   3    1   32 1
   4    2    3 ar
   5    2   33 1
   6    3    4 ar
   7    3   34 1
   8    4    5 ar
   9    4    7 1
  10    5    6 ar
  11    5    9 1
  12    6   35 1
  13    7    8 am
  14    7   27 2
  15    8    9 am
  16    8   10 1
  17    9   26 2
  18   10   11 1
  19   10   36 1
  20   10   37 1
  21   11   12 1
  22   11   38 1
  23   11   39 1
  24   12   13 1
  25   12   40 1
  26   12   41 1
  27   13   14 1
  28   13   30 1
  29   13   31 1
  30   14   15 1
  31   14   42 1
  32   14   43 1
  33   15   16 1
  34   15   44 1
  35   15   45 1
  36   16   17 1
  37   16   46 1
  38   16   47 1
  39   17   18 am
  40   17   21 am
  41   18   19 1
  42   18   29 2
  43   19   20 ar
  44   19   22 ar
  45   20   21 1
  46   20   25 ar
  47   21   28 2
  48   22   23 ar
  49   22   48 1
  50   23   24 ar
  51   23   49 1
  52   24   25 ar
  53   24   50 1
  54   25   51 1
  55   30   52 1
  56   30   53 1
  57   30   54 1
  58   31   55 1
  59   31   56 1
  60   31   57 1

#	End of record

