#	Name: ASD01914252
#	Creating user name:	WinNT
#	Creation time:	15. 06. 2019 20:03

#	Modifying user name:	WinNT
#	Modification time:	15. 06. 2019 20:03

#	Program:	/corina/corina34_cracker 3.40 0067  02.08.2006

@<TRIPOS>MOLECULE
ASD01914252
  29   31    0    0    0
SMALL
NO_CHARGES


@<TRIPOS>ATOM
   1 N1            -0.0169     1.3963     0.0097 N.2     
   2 N2             0.0021    -0.0041     0.0020 N.pl3   
   3 C3             1.2265     1.8293     0.0002 C.2     
   4 C4             2.0818     0.7148    -0.0140 C.2     
   5 C5             1.3050    -0.4065    -0.0126 C.2     
   6 C6             1.7882    -1.8053    -0.0247 C.ar    
   7 C7             1.6518     3.2515     0.0030 C.ar    
   8 C8             3.0064     3.5758    -0.0144 C.ar    
   9 C9             3.1571    -2.0733    -0.0334 C.ar    
  10 C10            0.8766    -2.8612    -0.0217 C.ar    
  11 C11            1.3334    -4.1632    -0.0326 C.ar    
  12 C12            2.6922    -4.4224    -0.0464 C.ar    
  13 C13            3.6013    -3.3796    -0.0442 C.ar    
  14 C14            0.6974     4.2664     0.0173 C.ar    
  15 C15            1.0988     5.5880     0.0194 C.ar    
  16 C16            2.4468     5.9041     0.0073 C.ar    
  17 C17            3.3971     4.8999    -0.0122 C.ar    
  18 Cl18          -0.0884     6.8544     0.0366 Cl      
  19 H19           -0.7745    -0.5852     0.0066 H       
  20 H20            3.1615     0.7411    -0.0245 H       
  21 H21            3.7498     2.7926    -0.0293 H       
  22 H22            3.8677    -1.2601    -0.0320 H       
  23 H23           -0.1845    -2.6601    -0.0105 H       
  24 H24            0.6286    -4.9815    -0.0299 H       
  25 H25            3.0449    -5.4432    -0.0549 H       
  26 H26            4.6609    -3.5884    -0.0551 H       
  27 H27           -0.3541     4.0202     0.0264 H       
  28 H28            2.7569     6.9386     0.0086 H       
  29 H29            4.4473     5.1519    -0.0216 H       
@<TRIPOS>BOND
   1    1    2 1
   2    1    3 2
   3    2    5 1
   4    2   19 1
   5    3    4 1
   6    3    7 1
   7    4    5 2
   8    4   20 1
   9    5    6 1
  10    6   10 ar
  11    6    9 ar
  12    7   14 ar
  13    7    8 ar
  14    8   17 ar
  15    8   21 1
  16    9   13 ar
  17    9   22 1
  18   10   11 ar
  19   10   23 1
  20   11   12 ar
  21   11   24 1
  22   12   13 ar
  23   12   25 1
  24   13   26 1
  25   14   15 ar
  26   14   27 1
  27   15   16 ar
  28   15   18 1
  29   16   17 ar
  30   16   28 1
  31   17   29 1

#	End of record

