#	Name: ASD01913820
#	Creating user name:	WinNT
#	Creation time:	15. 06. 2019 20:02

#	Modifying user name:	WinNT
#	Modification time:	15. 06. 2019 20:02

#	Program:	/corina/corina34_cracker 3.40 0067  02.08.2006

@<TRIPOS>MOLECULE
ASD01913820
  38   41    0    0    0
SMALL
NO_CHARGES


@<TRIPOS>ATOM
   1 C1            -0.0173     1.4278     0.0099 C.ar    
   2 C2             0.0021    -0.0041     0.0020 C.1     
   3 C3             0.0180    -1.1779    -0.0044 C.1     
   4 C4             0.0374    -2.6098    -0.0123 C.ar    
   5 C5            -1.1615    -3.3383    -0.0048 C.ar    
   6 C6             0.1561    -5.3344    -0.0290 C.ar    
   7 N7             1.2706    -4.6188    -0.0416 N.ar    
   8 C8             1.2502    -3.3023    -0.0335 C.ar    
   9 C9            -1.0910    -4.7169    -0.0133 C.ar    
  10 C10            1.1812     2.1463     0.0023 C.ar    
  11 C11            1.1547     3.5252     0.0095 C.ar    
  12 C12           -0.0549     4.1972     0.0242 C.ar    
  13 C13           -1.2458     3.4925     0.0317 C.ar    
  14 C14           -1.2350     2.1134     0.0194 C.ar    
  15 N15            0.2332    -6.7251    -0.0385 N.am    
  16 C16           -0.6894    -7.6908    -0.1155 C.2     
  17 C17            0.3213    -8.7958    -0.0463 C.3     
  18 C18            1.3488    -7.6604     0.0253 C.3     
  19 O19           -1.8986    -7.6773    -0.2071 O.2     
  20 C20            0.5589    -9.5172    -1.3895 C.3     
  21 C21            2.0359    -9.1991    -1.7322 C.3     
  22 C22            2.1840    -7.7348    -1.2705 C.3     
  23 H23            0.2534    -9.4458     0.8261 H       
  24 H24            1.9323    -7.6149     0.9449 H       
  25 H25           -2.1159    -2.8331     0.0078 H       
  26 H26            2.1799    -2.7527    -0.0436 H       
  27 H27           -1.9937    -5.3098    -0.0076 H       
  28 H28            2.1260     1.6231    -0.0088 H       
  29 H29            2.0801     4.0818     0.0040 H       
  30 H30           -0.0696     5.2771     0.0301 H       
  31 H31           -2.1860     4.0237     0.0432 H       
  32 H32           -2.1652     1.5647     0.0253 H       
  33 H33            0.4161   -10.5919    -1.2762 H       
  34 H34           -0.1051    -9.1217    -2.1580 H       
  35 H35            2.7102    -9.8535    -1.1797 H       
  36 H36            2.2097    -9.2807    -2.8051 H       
  37 H37            1.7871    -7.0550    -2.0244 H       
  38 H38            3.2285    -7.5049    -1.0599 H       
@<TRIPOS>BOND
   1    1    2 1
   2    1   10 ar
   3    1   14 ar
   4    2    3 3
   5    3    4 1
   6    4    5 ar
   7    4    8 ar
   8    5    9 ar
   9    5   25 1
  10    6    7 ar
  11    6   15 1
  12    6    9 ar
  13    7    8 ar
  14    8   26 1
  15    9   27 1
  16   10   11 ar
  17   10   28 1
  18   11   12 ar
  19   11   29 1
  20   12   13 ar
  21   12   30 1
  22   13   14 ar
  23   13   31 1
  24   14   32 1
  25   15   16 am
  26   15   18 1
  27   16   17 1
  28   16   19 2
  29   17   18 1
  30   17   20 1
  31   17   23 1
  32   18   24 1
  33   18   22 1
  34   20   21 1
  35   20   33 1
  36   20   34 1
  37   21   22 1
  38   21   35 1
  39   21   36 1
  40   22   37 1
  41   22   38 1

#	End of record

