#	Name: ASD01885795
#	Creating user name:	WinNT
#	Creation time:	15. 06. 2019 19:50

#	Modifying user name:	WinNT
#	Modification time:	15. 06. 2019 19:50

#	Program:	/corina/corina34_cracker 3.40 0067  02.08.2006

@<TRIPOS>MOLECULE
ASD01885795
  64   66    0    0    0
SMALL
NO_CHARGES


@<TRIPOS>ATOM
   1 C1             0.4622     1.0368    -0.2374 C.ar    
   2 C2            -0.7812     1.6151    -0.5978 C.ar    
   3 C3            -1.9169     0.7771    -0.7333 C.ar    
   4 C4            -1.7527    -0.5823    -0.5038 C.ar    
   5 C5            -0.4915    -1.0742    -0.1515 C.ar    
   6 N6             0.5539    -0.2775    -0.0304 N.ar    
   7 C7             1.4701     3.2071    -0.3254 C.ar    
   8 C8             0.2448     3.7717    -0.6729 C.ar    
   9 C9            -0.8674     2.9965    -0.8125 C.ar    
  10 C10           -3.2368     1.3344    -1.1074 C.2     
  11 C11           -0.3248    -2.5274     0.0924 C.2     
  12 C12            2.6800     4.0936    -0.1784 C.3     
  13 N13            2.8506     4.4591     1.2341 N.3     
  14 C14            1.5902     1.8691    -0.1089 C.ar    
  15 N15            0.8828    -3.0193     0.4332 N.am    
  16 O16           -1.2769    -3.2745    -0.0149 O.2     
  17 C17            1.7328     5.2918     1.7015 C.3     
  18 C18            1.9199     5.5990     3.1897 C.3     
  19 O19            3.1865     6.2338     3.3847 O.3     
  20 C20            4.2976     5.4502     2.9410 C.3     
  21 C21            4.1346     5.1415     1.4504 C.3     
  22 C22            0.8029     6.5313     3.6632 C.3     
  23 C23           -3.8774     2.4376    -0.5061 C.2     
  24 N24           -5.0199     2.6218    -1.1115 N.2     
  25 N25           -5.1550     1.6541    -2.1141 N.pl3   
  26 C26           -4.0548     0.8775    -2.1028 C.2     
  27 F27           -0.4360     5.9116     3.4676 F       
  28 F28            0.9746     6.8115     5.0231 F       
  29 F29            0.8489     7.7231     2.9320 F       
  30 C30            5.2784     4.2366     0.9880 C.3     
  31 C31            4.1602     6.4468     0.6525 C.3     
  32 C32           -6.2955     1.5133    -3.0228 C.3     
  33 H33           -2.5926    -1.2549    -0.5961 H       
  34 H34            0.1754     4.8375    -0.8334 H       
  35 H35           -1.8105     3.4451    -1.0876 H       
  36 H36            3.5652     3.5606    -0.5253 H       
  37 H37            2.5432     4.9966    -0.7734 H       
  38 H38            2.5472     1.4473     0.1608 H       
  39 H39            1.6430    -2.4228     0.5189 H       
  40 H40            0.9919    -3.9699     0.5928 H       
  41 H41            1.7127     6.2241     1.1372 H       
  42 H42            0.7944     4.7568     1.5555 H       
  43 H43            1.8856     4.6708     3.7601 H       
  44 H44            5.2215     6.0068     3.0986 H       
  45 H45            4.3332     4.5176     3.5041 H       
  46 H46           -3.4909     3.0268     0.3123 H       
  47 H47           -3.8575     0.0413    -2.7572 H       
  48 H48            5.2579     3.3063     1.5558 H       
  49 H49            5.1618     4.0171    -0.0733 H       
  50 H50            6.2303     4.7415     1.1522 H       
  51 H51            5.1312     6.9272     0.7729 H       
  52 H52            3.9897     6.2312    -0.4023 H       
  53 H53            3.3779     7.1117     1.0185 H       
  54 H54           -6.1217     2.1091    -3.9189 H       
  55 H55           -6.4120     0.4656    -3.3000 H       
  56 H56           -7.2012     1.8605    -2.5256 H       
  57 C57           12.2321    14.6302    10.9283 C.3     
  58 C58           12.2529    13.1004    10.9199 C.3     
  59 H59           13.2547    15.0075    10.9205 H       
  60 H60           11.7050    14.9913    10.0452 H       
  61 H61           11.7220    14.9817    11.8251 H       
  62 H62           12.7801    12.7393    11.8029 H       
  63 H63           11.2303    12.7231    10.9276 H       
  64 H64           12.7631    12.7489    10.0231 H       
@<TRIPOS>BOND
   1    1    6 ar
   2    1   14 ar
   3    1    2 ar
   4    2    3 ar
   5    2    9 ar
   6    3   10 1
   7    3    4 ar
   8    4    5 ar
   9    4   33 1
  10    5   11 1
  11    5    6 ar
  12    7   12 1
  13    7    8 ar
  14    7   14 ar
  15    8    9 ar
  16    8   34 1
  17    9   35 1
  18   10   23 1
  19   10   26 2
  20   11   15 am
  21   11   16 2
  22   12   13 1
  23   12   36 1
  24   12   37 1
  25   13   17 1
  26   13   21 1
  27   14   38 1
  28   15   39 1
  29   15   40 1
  30   17   18 1
  31   17   41 1
  32   17   42 1
  33   18   22 1
  34   18   19 1
  35   18   43 1
  36   19   20 1
  37   20   21 1
  38   20   44 1
  39   20   45 1
  40   21   30 1
  41   21   31 1
  42   22   27 1
  43   22   28 1
  44   22   29 1
  45   23   24 2
  46   23   46 1
  47   24   25 1
  48   25   26 1
  49   25   32 1
  50   26   47 1
  51   30   48 1
  52   30   49 1
  53   30   50 1
  54   31   51 1
  55   31   52 1
  56   31   53 1
  57   32   54 1
  58   32   55 1
  59   32   56 1
  60   57   58 1
  61   57   59 1
  62   57   60 1
  63   57   61 1
  64   58   62 1
  65   58   63 1
  66   58   64 1

#	End of record

