#	Name: ASD04910506
#	Creating user name:	WinNT
#	Creation time:	15. 06. 2019 20:56

#	Modifying user name:	WinNT
#	Modification time:	15. 06. 2019 20:56

#	Program:	/corina/corina34_cracker 3.40 0067  02.08.2006

@<TRIPOS>MOLECULE
ASD04910506
  68   71    0    0    0
SMALL
NO_CHARGES


@<TRIPOS>ATOM
   1 C1             0.5071    -1.5133     3.8548 C.ar    
   2 C2             0.3180    -1.9714     2.5790 C.ar    
   3 C3             1.1592    -1.5257     1.5607 C.ar    
   4 N4             2.1372    -0.6663     1.8120 N.ar    
   5 C5             2.3533    -0.2011     3.0248 C.ar    
   6 C6             1.5497    -0.6043     4.0921 C.ar    
   7 C7             1.7928    -0.0825     5.4507 C.2     
   8 N8             2.7968     0.7900     5.6678 N.am    
   9 O9             1.0873    -0.4397     6.3743 O.2     
  10 C10            3.0381     1.3082     7.0167 C.3     
  11 C11            4.2257     2.2723     6.9878 C.3     
  12 C12            4.4739     2.8053     8.3753 C.2     
  13 O13            5.4738     3.6743     8.5916 O.3     
  14 O14            3.7729     2.4504     9.2932 O.2     
  15 N15            0.9712    -1.9873     0.2689 N.pl3   
  16 C16           -0.0732    -2.9758    -0.0110 C.3     
  17 C17           -0.4411    -2.9227    -1.4951 C.3     
  18 C18            0.4338    -4.3529     0.3319 C.ar    
  19 C19           -1.0165    -1.5395    -1.8463 C.3     
  20 C20           -0.4055    -5.2639     0.9467 C.ar    
  21 C21            0.0561    -6.5269     1.2618 C.ar    
  22 C22            1.3642    -6.8816     0.9606 C.ar    
  23 C23            2.2045    -5.9648     0.3433 C.ar    
  24 C24            1.7355    -4.7050     0.0259 C.ar    
  25 C25           -0.8590    -7.5189     1.9323 C.3     
  26 C26            3.6251    -6.3456     0.0151 C.3     
  27 N27            1.8358    -8.1626     1.2795 N.pl3   
  28 N28            1.7596    -8.7804     2.5345 N.2     
  29 C29            2.3031    -9.9672     2.4400 C.2     
  30 C30            2.7427   -10.1441     1.1235 C.2     
  31 C31            2.4395    -9.0231     0.4288 C.2     
  32 C32            0.8231    -3.1066    -2.3599 C.3     
  33 C33            0.6003    -2.1591    -3.5647 C.3     
  34 C34           -0.0819    -0.9311    -2.9122 C.3     
  35 C35            3.4279   -11.3690     0.5747 C.3     
  36 F36            3.5632   -12.3219     1.5900 F       
  37 F37            2.6631   -11.9035    -0.4677 F       
  38 F38            4.6936   -11.0186     0.0923 F       
  39 H39           -0.1343    -1.8405     4.6597 H       
  40 H40           -0.4753    -2.6718     2.3634 H       
  41 H41            3.1590     0.4977     3.1949 H       
  42 H42            3.3596     1.0750     4.9309 H       
  43 H43            2.1508     1.8350     7.3676 H       
  44 H44            3.2589     0.4799     7.6899 H       
  45 H45            5.1130     1.7455     6.6368 H       
  46 H46            4.0049     3.1006     6.3145 H       
  47 H47            5.5942     3.9884     9.4982 H       
  48 H48            1.5310    -1.6561    -0.4507 H       
  49 H49           -0.9548    -2.7531     0.5901 H       
  50 H50           -1.1693    -3.6999    -1.7270 H       
  51 H51           -2.0237    -1.6455    -2.2495 H       
  52 H52           -1.0337    -0.9060    -0.9594 H       
  53 H53           -1.4228    -4.9873     1.1811 H       
  54 H54            2.3887    -3.9914    -0.4543 H       
  55 H55           -1.3355    -8.1425     1.1758 H       
  56 H56           -0.2802    -8.1473     2.6092 H       
  57 H57           -1.6232    -6.9845     2.4967 H       
  58 H58            3.6510    -6.8584    -0.9464 H       
  59 H59            4.2397    -5.4468    -0.0359 H       
  60 H60            4.0123    -7.0070     0.7901 H       
  61 H61            2.3965   -10.6861     3.2405 H       
  62 H62            2.6476    -8.8452    -0.6159 H       
  63 H63            1.7125    -2.8125    -1.8026 H       
  64 H64            0.9075    -4.1396    -2.6974 H       
  65 H65            1.5517    -1.8779    -4.0161 H       
  66 H66           -0.0571    -2.6198    -4.3020 H       
  67 H67           -0.6580    -0.3764    -3.6529 H       
  68 H68            0.6613    -0.2856    -2.4442 H       
@<TRIPOS>BOND
   1    1    2 ar
   2    1    6 ar
   3    1   39 1
   4    2    3 ar
   5    2   40 1
   6    3    4 ar
   7    3   15 1
   8    4    5 ar
   9    5    6 ar
  10    5   41 1
  11    6    7 1
  12    7    8 am
  13    7    9 2
  14    8   10 1
  15    8   42 1
  16   10   11 1
  17   10   43 1
  18   10   44 1
  19   11   12 1
  20   11   45 1
  21   11   46 1
  22   12   13 1
  23   12   14 2
  24   13   47 1
  25   15   16 1
  26   15   48 1
  27   16   17 1
  28   16   18 1
  29   16   49 1
  30   17   19 1
  31   17   32 1
  32   17   50 1
  33   18   20 ar
  34   18   24 ar
  35   19   34 1
  36   19   51 1
  37   19   52 1
  38   20   21 ar
  39   20   53 1
  40   21   22 ar
  41   21   25 1
  42   22   23 ar
  43   22   27 1
  44   23   24 ar
  45   23   26 1
  46   24   54 1
  47   25   55 1
  48   25   56 1
  49   25   57 1
  50   26   58 1
  51   26   59 1
  52   26   60 1
  53   27   28 1
  54   27   31 1
  55   28   29 2
  56   29   30 1
  57   29   61 1
  58   30   31 2
  59   30   35 1
  60   31   62 1
  61   32   33 1
  62   32   63 1
  63   32   64 1
  64   33   34 1
  65   33   65 1
  66   33   66 1
  67   34   67 1
  68   34   68 1
  69   35   36 1
  70   35   37 1
  71   35   38 1

#	End of record

