#	Name: ASD02039203
#	Creating user name:	WinNT
#	Creation time:	15. 06. 2019 20:17

#	Modifying user name:	WinNT
#	Modification time:	15. 06. 2019 20:17

#	Program:	/corina/corina34_cracker 3.40 0067  02.08.2006

@<TRIPOS>MOLECULE
ASD02039203
  50   53    0    0    0
SMALL
NO_CHARGES


@<TRIPOS>ATOM
   1 N1             0.0021     1.2626     0.3692 N.2     
   2 C2             0.0063    -0.0135     0.0889 C.2     
   3 N3             1.2922    -0.3754    -0.1077 N.2     
   4 C4             1.9960     0.7159     0.0676 C.2     
   5 O5             1.1352     1.6953     0.3609 O.3     
   6 C6             3.4938     0.8426    -0.0406 C.3     
   7 N7            -1.1049    -0.8433     0.0088 N.pl3   
   8 C8            -2.3914    -0.3043     0.1299 C.ar    
   9 C9            -2.6368     1.0037    -0.2675 C.ar    
  10 C10           -3.9074     1.5349    -0.1474 C.ar    
  11 C11           -4.9377     0.7600     0.3707 C.ar    
  12 C12           -4.6919    -0.5452     0.7670 C.ar    
  13 C13           -3.4234    -1.0788     0.6420 C.ar    
  14 O14           -6.1881     1.2827     0.4894 O.3     
  15 C15            3.8675     1.1878    -1.4591 C.ar    
  16 C16            3.9590     2.5125    -1.8460 C.ar    
  17 C17            4.2945     2.8314    -3.1469 C.ar    
  18 C18            4.5402     1.8215    -4.0678 C.ar    
  19 C19            4.4614     0.4931    -3.6725 C.ar    
  20 C20            4.1239     0.1799    -2.3700 C.ar    
  21 F21           -4.1471     2.8072    -0.5333 F       
  22 N22            4.8778     2.1419    -5.3856 N.am    
  23 C23            4.8518     1.2054    -6.3493 C.2     
  24 C24            4.3377    -0.1800    -6.0585 C.3     
  25 C25            4.7695    -0.6072    -4.6551 C.3     
  26 O26            5.2455     1.4786    -7.4635 O.2     
  27 C27            6.2731    -0.8898    -4.6490 C.3     
  28 C28            4.0125    -1.8747    -4.2534 C.3     
  29 C29           -7.1991     0.4297     1.0301 C.3     
  30 F30           -7.3396    -0.7003     0.2173 F       
  31 F31           -6.8333     0.0331     2.3209 F       
  32 H32            3.8411     1.6299     0.6285 H       
  33 H33            3.9595    -0.1027     0.2381 H       
  34 H34           -0.9895    -1.7962    -0.1311 H       
  35 H35           -1.8354     1.6056    -0.6698 H       
  36 H36           -5.4932    -1.1468     1.1700 H       
  37 H37           -3.2328    -2.0960     0.9511 H       
  38 H38            3.7676     3.2982    -1.1301 H       
  39 H39            4.3654     3.8661    -3.4483 H       
  40 H40            4.0519    -0.8537    -2.0652 H       
  41 H41            5.1335     3.0509    -5.6074 H       
  42 H42            3.2495    -0.1831    -6.1200 H       
  43 H43            4.7432    -0.8782    -6.7908 H       
  44 H44            6.8135     0.0120    -4.9369 H       
  45 H45            6.5815    -1.1943    -3.6489 H       
  46 H46            6.4957    -1.6883    -5.3568 H       
  47 H47            4.2376    -2.6721    -4.9616 H       
  48 H48            4.3199    -2.1797    -3.2531 H       
  49 H49            2.9410    -1.6752    -4.2593 H       
  50 H50           -8.1458     0.9685     1.0701 H       
@<TRIPOS>BOND
   1    1    2 2
   2    1    5 1
   3    2    3 1
   4    2    7 1
   5    3    4 2
   6    4    5 1
   7    4    6 1
   8    6   15 1
   9    6   32 1
  10    6   33 1
  11    7    8 1
  12    7   34 1
  13    8    9 ar
  14    8   13 ar
  15    9   10 ar
  16    9   35 1
  17   10   11 ar
  18   10   21 1
  19   11   12 ar
  20   11   14 1
  21   12   13 ar
  22   12   36 1
  23   13   37 1
  24   14   29 1
  25   15   16 ar
  26   15   20 ar
  27   16   17 ar
  28   16   38 1
  29   17   18 ar
  30   17   39 1
  31   18   19 ar
  32   18   22 1
  33   19   20 ar
  34   19   25 1
  35   20   40 1
  36   22   23 am
  37   22   41 1
  38   23   24 1
  39   23   26 2
  40   24   25 1
  41   24   42 1
  42   24   43 1
  43   25   27 1
  44   25   28 1
  45   27   44 1
  46   27   45 1
  47   27   46 1
  48   28   47 1
  49   28   48 1
  50   28   49 1
  51   29   30 1
  52   29   31 1
  53   29   50 1

#	End of record

