#	Name: ASD01910556
#	Creating user name:	WinNT
#	Creation time:	15. 06. 2019 19:56

#	Modifying user name:	WinNT
#	Modification time:	15. 06. 2019 19:56

#	Program:	/corina/corina34_cracker 3.40 0067  02.08.2006

@<TRIPOS>MOLECULE
ASD01910556
  44   47    0    0    0
SMALL
NO_CHARGES


@<TRIPOS>ATOM
   1 O1             0.0862     0.2015     0.1088 O.3     
   2 C2             0.1311    -1.0081     0.6906 C.2     
   3 N3             1.4099    -1.2920     0.8746 N.2     
   4 C4             2.0849    -0.2373     0.3941 C.2     
   5 N5             1.2134     0.6202    -0.0498 N.2     
   6 C6            -1.0194    -1.8536     1.0535 C.2     
   7 N7            -0.9562    -3.0378     1.6248 N.2     
   8 C8            -2.1922    -3.5059     1.8032 C.2     
   9 C9            -3.0683    -2.5899     1.3302 C.2     
  10 N10           -2.3354    -1.5405     0.8602 N.pl3   
  11 C11            3.9739     1.1676     1.1796 C.3     
  12 C12            3.5830    -0.0747     0.3730 C.3     
  13 C13            4.0586     0.0898    -1.0723 C.3     
  14 C14            5.5831     0.2221    -1.0974 C.3     
  15 C15            5.9966     1.4679    -0.3075 C.3     
  16 N16            5.4203     1.3853     1.0415 N.am    
  17 C17            6.2037     1.5066     2.1315 C.2     
  18 C18            7.6668     1.6408     1.9783 C.ar    
  19 O19            5.7062     1.5055     3.2407 O.2     
  20 C20            8.1954     2.5913     1.1024 C.ar    
  21 C21            9.5614     2.7126     0.9636 C.ar    
  22 C22           10.4103     1.8930     1.6919 C.ar    
  23 C23            9.8907     0.9473     2.5626 C.ar    
  24 C24            8.5264     0.8215     2.7133 C.ar    
  25 F25           11.7484     2.0161     1.5521 F       
  26 C26           -2.5518    -4.8302     2.4259 C.3     
  27 F27           -1.3918    -5.4541     2.8975 F       
  28 F28           -3.4344    -4.6204     3.4909 F       
  29 F29           -3.1631    -5.6456     1.4674 F       
  30 H30           -4.1451    -2.6724     1.3292 H       
  31 H31           -2.6822    -0.7285     0.4587 H       
  32 H32            3.4357     2.0353     0.7980 H       
  33 H33            3.7261     1.0142     2.2299 H       
  34 H34            4.0512    -0.9557     0.8120 H       
  35 H35            3.7602    -0.7821    -1.6543 H       
  36 H36            3.6093     0.9847    -1.5027 H       
  37 H37            6.0325    -0.6616    -0.6446 H       
  38 H38            5.9232     0.3159    -2.1288 H       
  39 H39            7.0835     1.5126    -0.2384 H       
  40 H40            5.6234     2.3600    -0.8104 H       
  41 H41            7.5351     3.2299     0.5344 H       
  42 H42            9.9713     3.4471     0.2862 H       
  43 H43           10.5563     0.3112     3.1272 H       
  44 H44            8.1227     0.0848     3.3920 H       
@<TRIPOS>BOND
   1    1    2 1
   2    1    5 1
   3    2    3 2
   4    2    6 1
   5    3    4 1
   6    4    5 2
   7    4   12 1
   8    6    7 2
   9    6   10 1
  10    7    8 1
  11    8    9 2
  12    8   26 1
  13    9   10 1
  14    9   30 1
  15   10   31 1
  16   11   12 1
  17   11   16 1
  18   11   32 1
  19   11   33 1
  20   12   13 1
  21   12   34 1
  22   13   14 1
  23   13   35 1
  24   13   36 1
  25   14   15 1
  26   14   37 1
  27   14   38 1
  28   15   16 1
  29   15   39 1
  30   15   40 1
  31   16   17 am
  32   17   18 1
  33   17   19 2
  34   18   20 ar
  35   18   24 ar
  36   20   21 ar
  37   20   41 1
  38   21   22 ar
  39   21   42 1
  40   22   23 ar
  41   22   25 1
  42   23   24 ar
  43   23   43 1
  44   24   44 1
  45   26   27 1
  46   26   28 1
  47   26   29 1

#	End of record

