#	Name: ASD01913246
#	Creating user name:	WinNT
#	Creation time:	15. 06. 2019 20:01

#	Modifying user name:	WinNT
#	Modification time:	15. 06. 2019 20:01

#	Program:	/corina/corina34_cracker 3.40 0067  02.08.2006

@<TRIPOS>MOLECULE
ASD01913246
  47   50    0    0    0
SMALL
NO_CHARGES


@<TRIPOS>ATOM
   1 C1            -2.4083    -2.5756    -0.6249 C.3     
   2 N2            -1.1304    -1.9288    -0.3080 N.am    
   3 C3            -0.2004    -2.6629     0.5662 C.3     
   4 C4            -0.8611    -2.8096     1.9360 C.3     
   5 C5            -2.2822    -3.2883     1.7974 C.ar    
   6 C6            -2.8805    -3.8639     2.9134 C.ar    
   7 C7            -4.1836    -4.3153     2.8567 C.ar    
   8 C8            -4.9022    -4.1945     1.6819 C.ar    
   9 C9            -4.3097    -3.6272     0.5726 C.ar    
  10 C10           -2.9977    -3.1760     0.6268 C.ar    
  11 C11           -0.8200    -0.7121    -0.7976 C.2     
  12 C12           -1.7148    -0.0589    -1.7770 C.ar    
  13 C13           -2.3946    -0.8255    -2.7209 C.ar    
  14 C14           -3.2370    -0.2012    -3.6407 C.ar    
  15 C15           -3.3931     1.1882    -3.6092 C.ar    
  16 C16           -2.7160     1.9403    -2.6708 C.ar    
  17 C17           -1.8845     1.3272    -1.7540 C.ar    
  18 O18            0.1954    -0.1517    -0.4340 O.2     
  19 C19           -3.9396    -0.9808    -4.6150 C.1     
  20 C20           -4.5157    -1.6198    -5.4138 C.1     
  21 C21           -5.2183    -2.3994    -6.3881 C.ar    
  22 C22           -6.0606    -1.7668    -7.3064 C.ar    
  23 C23           -6.7315    -2.5341    -8.2411 C.ar    
  24 C24           -6.5410    -3.9096    -8.2303 C.ar    
  25 C25           -5.6929    -4.4710    -7.2934 C.ar    
  26 N26           -5.0605    -3.7192    -6.4160 N.ar    
  27 C27           -4.3022     1.8656    -4.6021 C.3     
  28 Cl28          -1.9804    -4.0163     4.3900 Cl      
  29 H29           -3.0980    -1.8362    -1.0320 H       
  30 H30           -2.2440    -3.3618    -1.3617 H       
  31 H31            0.0005    -3.6484     0.1461 H       
  32 H32            0.7314    -2.1058     0.6638 H       
  33 H33           -0.2972    -3.5282     2.5308 H       
  34 H34           -0.8557    -1.8441     2.4419 H       
  35 H35           -4.6404    -4.7619     3.7275 H       
  36 H36           -5.9232    -4.5431     1.6326 H       
  37 H37           -4.8709    -3.5333    -0.3453 H       
  38 H38           -2.2697    -1.8981    -2.7405 H       
  39 H39           -2.8400     3.0130    -2.6506 H       
  40 H40           -1.3613     1.9217    -1.0197 H       
  41 H41           -6.1860    -0.6943    -7.2863 H       
  42 H42           -7.3894    -2.0737    -8.9633 H       
  43 H43           -7.0513    -4.5356    -8.9474 H       
  44 H44           -5.5436    -5.5406    -7.2837 H       
  45 H45           -5.3097     1.9255    -4.1903 H       
  46 H46           -3.9328     2.8705    -4.8062 H       
  47 H47           -4.3218     1.2906    -5.5279 H       
@<TRIPOS>BOND
   1    1    2 1
   2    1   10 1
   3    1   29 1
   4    1   30 1
   5    2    3 1
   6    2   11 am
   7    3    4 1
   8    3   31 1
   9    3   32 1
  10    4    5 1
  11    4   33 1
  12    4   34 1
  13    5    6 ar
  14    5   10 ar
  15    6    7 ar
  16    6   28 1
  17    7    8 ar
  18    7   35 1
  19    8    9 ar
  20    8   36 1
  21    9   10 ar
  22    9   37 1
  23   11   12 1
  24   11   18 2
  25   12   13 ar
  26   12   17 ar
  27   13   14 ar
  28   13   38 1
  29   14   15 ar
  30   14   19 1
  31   15   16 ar
  32   15   27 1
  33   16   17 ar
  34   16   39 1
  35   17   40 1
  36   19   20 3
  37   20   21 1
  38   21   22 ar
  39   21   26 ar
  40   22   23 ar
  41   22   41 1
  42   23   24 ar
  43   23   42 1
  44   24   25 ar
  45   24   43 1
  46   25   26 ar
  47   25   44 1
  48   27   45 1
  49   27   46 1
  50   27   47 1

#	End of record

