#	Name: ASD05872002
#	Creating user name:	WinNT
#	Creation time:	15. 06. 2019 21:04

#	Modifying user name:	WinNT
#	Modification time:	15. 06. 2019 21:04

#	Program:	/corina/corina34_cracker 3.40 0067  02.08.2006

@<TRIPOS>MOLECULE
ASD05872002
  59   62    0    0    0
SMALL
NO_CHARGES


@<TRIPOS>ATOM
   1 C1            -0.0168     1.3909     0.0097 C.ar    
   2 C2             0.0021    -0.0041     0.0020 C.ar    
   3 C3            -1.1845    -0.7121     0.0091 C.ar    
   4 C4            -2.3952    -0.0265     0.0243 C.ar    
   5 C5            -2.4171     1.3754     0.0325 C.ar    
   6 C6            -1.2170     2.0760     0.0306 C.ar    
   7 C7            -3.8128    -0.4423     0.0360 C.2     
   8 C8            -4.5353     0.7114     0.0498 C.2     
   9 O9            -3.7097     1.7642     0.0476 O.3     
  10 C10           -6.0401     0.7908     0.0647 C.3     
  11 O11           -6.5028     0.8080     1.4166 O.3     
  12 C12           -7.8479     0.8780     1.6082 C.ar    
  13 C13           -8.6982     0.9288     0.5208 C.ar    
  14 C14          -10.0732     1.0004     0.7246 C.ar    
  15 C15          -10.5979     1.0211     2.0242 C.ar    
  16 C16           -9.7318     0.9699     3.1102 C.ar    
  17 C17           -8.3679     0.8928     2.9032 C.ar    
  18 C18          -11.2442     1.0666    -0.1739 C.2     
  19 C19          -12.3325     1.1195     0.6423 C.2     
  20 O20          -11.9421     1.0922     1.9217 O.3     
  21 C21          -13.7629     1.1978     0.1746 C.3     
  22 C22          -11.2358     1.0746    -1.6429 C.2     
  23 O23          -11.2872     0.0265    -2.2568 O.2     
  24 O24          -11.1712     2.2443    -2.3102 O.3     
  25 C25          -11.1669     2.1763    -3.7606 C.3     
  26 O26            1.1896    -0.6677    -0.0129 O.3     
  27 S27            1.7432    -0.9772     1.3707 S.o2    
  28 O28            3.1393    -1.3444     1.1913 O.co2   
  29 O29            1.5947     0.2341     2.1624 O.co2   
  30 O30            0.9533    -2.0770     1.9021 O.co2   
  31 O31           -7.5252     0.8429     3.9695 O.3     
  32 C32           -8.1199     0.8743     5.2685 C.3     
  33 C33           -4.3345    -1.8156     0.0327 C.2     
  34 O34           -4.5397    -2.3905     1.0841 O.2     
  35 O35           -4.5856    -2.4384    -1.1364 O.3     
  36 C36           -5.0997    -3.7944    -1.0637 C.3     
  37 O37            1.1546     2.0819     0.0022 O.3     
  38 C38            1.0667     3.5081     0.0107 C.3     
  39 H39           -1.1722    -1.7920     0.0025 H       
  40 H40           -1.2222     3.1560     0.0372 H       
  41 H41           -6.3609     1.7017    -0.4407 H       
  42 H42           -6.4549    -0.0757    -0.4503 H       
  43 H43           -8.2982     0.9134    -0.4823 H       
  44 H44          -10.1253     0.9853     4.1159 H       
  45 H45          -14.1621     0.1905     0.0560 H       
  46 H46          -14.3567     1.7396     0.9109 H       
  47 H47          -13.8046     1.7201    -0.7812 H       
  48 H48          -10.3039     1.6003    -4.0948 H       
  49 H49          -12.0815     1.6931    -4.1044 H       
  50 H50          -11.1121     3.1844    -4.1714 H       
  51 H51           -7.3385     0.8285     6.0271 H       
  52 H52           -8.6869     1.7977     5.3862 H       
  53 H53           -8.7879     0.0207     5.3830 H       
  54 H54           -5.2578    -4.1776    -2.0718 H       
  55 H55           -4.3817    -4.4278    -0.5428 H       
  56 H56           -6.0456    -3.7958    -0.5220 H       
  57 H57            0.5230     3.8439    -0.8723 H       
  58 H58            0.5400     3.8343     0.9075 H       
  59 H59            2.0700     3.9341     0.0034 H       
@<TRIPOS>BOND
   1    1    2 ar
   2    1   37 1
   3    1    6 ar
   4    2    3 ar
   5    2   26 1
   6    3    4 ar
   7    3   39 1
   8    4    5 ar
   9    4    7 1
  10    5    6 ar
  11    5    9 1
  12    6   40 1
  13    7    8 2
  14    7   33 1
  15    8    9 1
  16    8   10 1
  17   10   11 1
  18   10   41 1
  19   10   42 1
  20   11   12 1
  21   12   13 ar
  22   12   17 ar
  23   13   14 ar
  24   13   43 1
  25   14   15 ar
  26   14   18 1
  27   15   16 ar
  28   15   20 1
  29   16   17 ar
  30   16   44 1
  31   17   31 1
  32   18   19 2
  33   18   22 1
  34   19   20 1
  35   19   21 1
  36   21   45 1
  37   21   46 1
  38   21   47 1
  39   22   23 2
  40   22   24 1
  41   24   25 1
  42   25   48 1
  43   25   49 1
  44   25   50 1
  45   26   27 1
  46   27   28 ar
  47   27   29 ar
  48   27   30 ar
  49   31   32 1
  50   32   51 1
  51   32   52 1
  52   32   53 1
  53   33   34 2
  54   33   35 1
  55   35   36 1
  56   36   54 1
  57   36   55 1
  58   36   56 1
  59   37   38 1
  60   38   57 1
  61   38   58 1
  62   38   59 1

#	End of record

