#	Name: ASD01885457
#	Creating user name:	WinNT
#	Creation time:	15. 06. 2019 19:49

#	Modifying user name:	WinNT
#	Modification time:	15. 06. 2019 19:49

#	Program:	/corina/corina34_cracker 3.40 0067  02.08.2006

@<TRIPOS>MOLECULE
ASD01885457
  41   44    0    0    0
SMALL
NO_CHARGES


@<TRIPOS>ATOM
   1 C1            -0.1576     2.1210    -0.5425 C.ar    
   2 C2            -0.3385     0.7376    -0.5895 C.ar    
   3 N3            -1.5489     0.1389    -0.7100 N.2     
   4 C4            -2.5074     0.5077    -1.4785 C.2     
   5 C5            -2.3986     1.7315    -2.3499 C.3     
   6 C6            -2.2415     2.9338    -1.4535 C.2     
   7 N7            -1.1977     3.0368    -0.6318 N.am    
   8 C8             1.1279     2.6392    -0.4045 C.ar    
   9 C9             2.2283     1.7930    -0.3191 C.ar    
  10 C10            2.0457     0.4087    -0.3720 C.ar    
  11 C11            0.7827    -0.1096    -0.5049 C.ar    
  12 C12           -3.7478    -0.2872    -1.5102 C.ar    
  13 O13           -3.0729     3.8164    -1.4822 O.2     
  14 C14           -3.8955    -1.4357    -0.7162 C.ar    
  15 C15           -5.0898    -2.1292    -0.8011 C.ar    
  16 N16           -6.0431    -1.7053    -1.6094 N.ar    
  17 N17           -5.9163    -0.6574    -2.3379 N.ar    
  18 C18           -4.8238     0.0797    -2.3293 C.ar    
  19 C19            3.5891     2.3572    -0.1732 C.ar    
  20 C20            3.8951     3.1960     0.9149 C.ar    
  21 C21            5.1826     3.7201     1.0394 C.ar    
  22 C22            6.1446     3.4146     0.0996 C.ar    
  23 C23            5.8424     2.5888    -0.9711 C.ar    
  24 C24            4.5764     2.0567    -1.1085 C.ar    
  25 C25            2.8620     3.5194     1.9163 C.2     
  26 O26            1.7807     2.9669     1.8738 O.2     
  27 O27            3.1172     4.4275     2.8786 O.3     
  28 H28           -1.5297     1.6427    -3.0020 H       
  29 H29           -3.3015     1.8364    -2.9513 H       
  30 H30           -1.1623     3.8107    -0.0480 H       
  31 H31            1.2716     3.7088    -0.3637 H       
  32 H32            2.8976    -0.2521    -0.3087 H       
  33 H33            0.6468    -1.1802    -0.5454 H       
  34 H34           -3.1032    -1.7670    -0.0614 H       
  35 H35           -5.2417    -3.0177    -0.2062 H       
  36 H36           -4.7545     0.9556    -2.9573 H       
  37 H37            5.4254     4.3648     1.8711 H       
  38 H38            7.1399     3.8221     0.1986 H       
  39 H39            6.6038     2.3568    -1.7011 H       
  40 H40            4.3490     1.4139    -1.9460 H       
  41 H41            2.4092     4.6063     3.5125 H       
@<TRIPOS>BOND
   1    1    2 ar
   2    1    8 ar
   3    1    7 1
   4    2    3 1
   5    2   11 ar
   6    3    4 2
   7    4    5 1
   8    4   12 1
   9    5    6 1
  10    5   28 1
  11    5   29 1
  12    6    7 am
  13    6   13 2
  14    7   30 1
  15    8    9 ar
  16    8   31 1
  17    9   10 ar
  18    9   19 1
  19   10   11 ar
  20   10   32 1
  21   11   33 1
  22   12   14 ar
  23   12   18 ar
  24   14   15 ar
  25   14   34 1
  26   15   16 ar
  27   15   35 1
  28   16   17 ar
  29   17   18 ar
  30   18   36 1
  31   19   20 ar
  32   19   24 ar
  33   20   21 ar
  34   20   25 1
  35   21   22 ar
  36   21   37 1
  37   22   23 ar
  38   22   38 1
  39   23   24 ar
  40   23   39 1
  41   24   40 1
  42   25   26 2
  43   25   27 1
  44   27   41 1

#	End of record

