#	Name: ASD01901541
#	Creating user name:	WinNT
#	Creation time:	15. 06. 2019 19:53

#	Modifying user name:	WinNT
#	Modification time:	15. 06. 2019 19:53

#	Program:	/corina/corina34_cracker 3.40 0067  02.08.2006

@<TRIPOS>MOLECULE
ASD01901541
  42   46    0    0    0
SMALL
NO_CHARGES


@<TRIPOS>ATOM
   1 F1            -0.4840    -1.0927     1.9266 F       
   2 C2            -0.5111     0.2775     1.6456 C.3     
   3 F3            -1.4609     0.6144     0.6753 F       
   4 C4            -0.5700     1.1629     2.9015 C.3     
   5 C5             0.9676     1.1378     2.8955 C.3     
   6 C6             0.8791     0.8798     1.3820 C.3     
   7 N7             1.5769     2.4256     3.2366 N.am    
   8 C8             2.8190     2.4664     3.7581 C.2     
   9 O9             3.4340     1.4341     3.9455 O.2     
  10 C10            3.4320     3.7621     4.1014 C.2     
  11 N11            2.8063     4.8834     3.9215 N.2     
  12 S12            3.6699     6.1050     4.3636 S.3     
  13 C13            5.0924     5.2057     4.8880 C.ar    
  14 C14            6.3196     5.5672     5.4200 C.ar    
  15 C15            7.2434     4.5832     5.7325 C.ar    
  16 N16            8.4837     4.9349     6.2697 N.pl3   
  17 C17            9.6019     4.1293     6.0330 C.2     
  18 N18            9.6474     3.0857     5.2482 N.2     
  19 N19           10.9320     2.5325     5.2607 N.pl3   
  20 H20           11.2132     1.7522     4.7579 H       
  21 C21           11.7295     3.2688     6.0964 C.ar    
  22 C22           13.0660     3.1810     6.4843 C.ar    
  23 C23           13.5520     4.1212     7.3714 C.ar    
  24 C24           12.7086     5.1164     7.8479 C.ar    
  25 N25           11.4517     5.1851     7.4724 N.ar    
  26 C26           10.9339     4.3080     6.6157 C.ar    
  27 C27            6.9343     3.2404     5.5109 C.ar    
  28 C28            5.7309     2.8756     4.9880 C.ar    
  29 C29            4.7740     3.8525     4.6679 C.ar    
  30 H30           -0.9912     2.1515     2.7194 H       
  31 H31           -1.0113     0.6662     3.7656 H       
  32 H32            1.3930     0.3054     3.4561 H       
  33 H33            1.6076     0.1546     1.0194 H       
  34 H34            0.8540     1.7911     0.7845 H       
  35 H35            1.0864     3.2490     3.0872 H       
  36 H36            6.5543     6.6078     5.5893 H       
  37 H37            8.5694     5.7379     6.8069 H       
  38 H38           13.7040     2.3982     6.1015 H       
  39 H39           14.5822     4.0825     7.6932 H       
  40 H40           13.0940     5.8488     8.5417 H       
  41 H41            7.6601     2.4795     5.7573 H       
  42 H42            5.5100     1.8314     4.8230 H       
@<TRIPOS>BOND
   1    1    2 1
   2    2    6 1
   3    2    3 1
   4    2    4 1
   5    4    5 1
   6    4   30 1
   7    4   31 1
   8    5    6 1
   9    5    7 1
  10    5   32 1
  11    6   33 1
  12    6   34 1
  13    7    8 am
  14    7   35 1
  15    8    9 2
  16    8   10 1
  17   10   29 1
  18   10   11 2
  19   11   12 1
  20   12   13 1
  21   13   29 ar
  22   13   14 ar
  23   14   15 ar
  24   14   36 1
  25   15   16 1
  26   15   27 ar
  27   16   17 1
  28   16   37 1
  29   17   26 1
  30   17   18 2
  31   18   19 1
  32   19   20 1
  33   19   21 1
  34   21   26 ar
  35   21   22 ar
  36   22   23 ar
  37   22   38 1
  38   23   24 ar
  39   23   39 1
  40   24   25 ar
  41   24   40 1
  42   25   26 ar
  43   27   28 ar
  44   27   41 1
  45   28   29 ar
  46   28   42 1

#	End of record

