#	Name: ASD01410301
#	Creating user name:	WinNT
#	Creation time:	15. 06. 2019 19:17

#	Modifying user name:	WinNT
#	Modification time:	15. 06. 2019 19:17

#	Program:	/corina/corina34_cracker 3.40 0067  02.08.2006

@<TRIPOS>MOLECULE
ASD01410301
  58   62    0    0    0
SMALL
NO_CHARGES


@<TRIPOS>ATOM
   1 O1             0.1463     1.6419    -0.2449 O.3     
   2 C2             0.0787     0.3037    -0.2118 C.2     
   3 C3             1.3440    -0.1883    -0.1147 C.2     
   4 C4             2.2262     0.9855    -0.0896 C.2     
   5 C5             1.4203     2.0566    -0.1727 C.2     
   6 N6             2.6642    -2.2147    -0.8730 N.pl3   
   7 C7             1.7466    -1.6094    -0.0483 C.2     
   8 C8             1.2682    -2.5205     0.8376 C.2     
   9 C9             1.9022    -3.7576     0.5722 C.ar    
  10 C10            2.7791    -3.5425    -0.5109 C.ar    
  11 C11            1.8074    -5.0303     1.1543 C.ar    
  12 C12            2.5610    -6.0566     0.6744 C.ar    
  13 C13            3.4364    -5.8520    -0.4031 C.ar    
  14 C14            3.5425    -4.5926    -0.9933 C.ar    
  15 C15           -0.9731    -3.1589     1.6849 C.3     
  16 C16           -2.0127    -2.8950     2.7760 C.3     
  17 C17           -1.4029    -3.1996     4.1458 C.3     
  18 C18           -0.1855    -2.3013     4.3733 C.3     
  19 C19            0.8541    -2.5652     3.2821 C.3     
  20 C20            0.2443    -2.2606     1.9124 C.3     
  21 C21            2.6567    -1.7677    -3.2582 C.ar    
  22 C22            1.6299    -0.9101    -3.6124 C.ar    
  23 C23            0.9500    -1.0897    -4.8038 C.ar    
  24 C24            1.2920    -2.1266    -5.6473 C.ar    
  25 C25            2.3270    -2.9952    -5.2964 C.ar    
  26 C26            3.0091    -2.8081    -4.0923 C.ar    
  27 C27            3.3954    -1.5608    -1.9611 C.3     
  28 C28            4.2470    -6.9718    -0.9128 C.2     
  29 O29            5.0059    -6.7973    -1.8458 O.2     
  30 O30            4.1469    -8.1897    -0.3443 O.3     
  31 C31            2.6984    -4.1079    -6.1943 C.2     
  32 O32            3.5994    -4.8621    -5.8863 O.2     
  33 O33            2.0378    -4.2862    -7.3547 O.3     
  34 H34           -0.8261    -0.2843    -0.2545 H       
  35 H35            3.3039     0.9870    -0.0187 H       
  36 H36            1.7455     3.0864    -0.1808 H       
  37 H37            1.1362    -5.1955     1.9842 H       
  38 H38            2.4851    -7.0348     1.1258 H       
  39 H39            4.2166    -4.4371    -1.8227 H       
  40 H40           -0.6654    -4.2039     1.7213 H       
  41 H41           -1.4076    -2.9419     0.7090 H       
  42 H42           -2.3204    -1.8500     2.7396 H       
  43 H43           -2.8800    -3.5350     2.6139 H       
  44 H44           -2.1435    -3.0116     4.9231 H       
  45 H45           -1.0952    -4.2447     4.1822 H       
  46 H46           -0.4932    -1.2563     4.3368 H       
  47 H47            0.2489    -2.5183     5.3491 H       
  48 H48            1.7214    -1.9252     3.4442 H       
  49 H49            1.1618    -3.6103     3.3186 H       
  50 H50           -0.0634    -1.2155     1.8759 H       
  51 H51            1.3580    -0.0971    -2.9556 H       
  52 H52            0.1495    -0.4170    -5.0740 H       
  53 H53            0.7599    -2.2661    -6.5767 H       
  54 H54            3.8108    -3.4765    -3.8148 H       
  55 H55            3.4755    -0.4934    -1.7549 H       
  56 H56            4.3935    -1.9918    -2.0386 H       
  57 H57            4.6986    -8.8930    -0.7131 H       
  58 H58            2.3166    -5.0279    -7.9091 H       
@<TRIPOS>BOND
   1    1    2 1
   2    1    5 1
   3    2    3 2
   4    2   34 1
   5    3    4 1
   6    3    7 1
   7    4    5 2
   8    4   35 1
   9    5   36 1
  10    6    7 1
  11    6   10 1
  12    6   27 1
  13    7    8 2
  14    8    9 1
  15    8   20 1
  16    9   10 ar
  17    9   11 ar
  18   10   14 ar
  19   11   12 ar
  20   11   37 1
  21   12   13 ar
  22   12   38 1
  23   13   14 ar
  24   13   28 1
  25   14   39 1
  26   15   16 1
  27   15   20 1
  28   15   40 1
  29   15   41 1
  30   16   17 1
  31   16   42 1
  32   16   43 1
  33   17   18 1
  34   17   44 1
  35   17   45 1
  36   18   19 1
  37   18   46 1
  38   18   47 1
  39   19   20 1
  40   19   48 1
  41   19   49 1
  42   20   50 1
  43   21   22 ar
  44   21   26 ar
  45   21   27 1
  46   22   23 ar
  47   22   51 1
  48   23   24 ar
  49   23   52 1
  50   24   25 ar
  51   24   53 1
  52   25   26 ar
  53   25   31 1
  54   26   54 1
  55   27   55 1
  56   27   56 1
  57   28   29 2
  58   28   30 1
  59   30   57 1
  60   31   32 2
  61   31   33 1
  62   33   58 1

#	End of record

