#	Name: ASD01810304
#	Creating user name:	WinNT
#	Creation time:	15. 06. 2019 19:24

#	Modifying user name:	WinNT
#	Modification time:	15. 06. 2019 19:24

#	Program:	/corina/corina34_cracker 3.40 0067  02.08.2006

@<TRIPOS>MOLECULE
ASD01810304
  21   22    0    0    0
SMALL
NO_CHARGES


@<TRIPOS>ATOM
   1 N1            -0.0161     1.3349     0.0094 N.pl3   
   2 C2             0.0021    -0.0041     0.0020 C.2     
   3 C3             1.1800    -0.7235    -0.0127 C.2     
   4 C4             2.4584     0.0058    -0.0210 C.2     
   5 C5             2.3933     1.4792    -0.0130 C.ar    
   6 C6             3.5540     2.2528    -0.0195 C.ar    
   7 C7             3.4562     3.6265    -0.0112 C.ar    
   8 C8             2.2112     4.2396     0.0036 C.ar    
   9 C9             1.0568     3.4882     0.0101 C.ar    
  10 C10            1.1317     2.0975     0.0025 C.ar    
  11 C11            1.1580    -2.1931    -0.0194 C.2     
  12 O12            0.0963    -2.7852    -0.0120 O.2     
  13 O13            2.3151    -2.8845    -0.0338 O.3     
  14 O14            3.5253    -0.5827    -0.0336 O.2     
  15 H15           -0.8740     1.7875     0.0158 H       
  16 H16           -0.9362    -0.5389     0.0081 H       
  17 H17            4.5237     1.7774    -0.0306 H       
  18 H18            4.3523     4.2293    -0.0158 H       
  19 H19            2.1468     5.3177     0.0103 H       
  20 H20            0.0940     3.9773     0.0213 H       
  21 H21            2.2501    -3.8493    -0.0378 H       
@<TRIPOS>BOND
   1    1    2 1
   2    1   10 1
   3    1   15 1
   4    2    3 2
   5    2   16 1
   6    3    4 1
   7    3   11 1
   8    4    5 1
   9    4   14 2
  10    5    6 ar
  11    5   10 ar
  12    6    7 ar
  13    6   17 1
  14    7    8 ar
  15    7   18 1
  16    8    9 ar
  17    8   19 1
  18    9   10 ar
  19    9   20 1
  20   11   12 2
  21   11   13 1
  22   13   21 1

#	End of record

