#	Name: ASD05303054
#	Creating user name:	WinNT
#	Creation time:	15. 06. 2019 20:58

#	Modifying user name:	WinNT
#	Modification time:	15. 06. 2019 20:58

#	Program:	/corina/corina34_cracker 3.40 0067  02.08.2006

@<TRIPOS>MOLECULE
ASD05303054
  35   37    0    0    0
SMALL
NO_CHARGES


@<TRIPOS>ATOM
   1 C1            -0.0233     1.3663    -0.0454 C.ar    
   2 C2             0.0000    -0.0157    -0.0538 C.ar    
   3 C3             1.2086    -0.6882    -0.0489 C.ar    
   4 C4             2.3955     0.0257    -0.0363 C.ar    
   5 C5             2.3748     1.4180    -0.0309 C.ar    
   6 C6             1.1585     2.0837    -0.0339 C.ar    
   7 O7             3.5320     2.1308    -0.0273 O.3     
   8 N8             3.6266    -0.6532    -0.0249 N.am    
   9 C9             3.6936    -1.9715     0.2477 C.2     
  10 O10            2.6954    -2.5717     0.5941 O.2     
  11 C11            4.7205     1.4694     0.4124 C.3     
  12 C12            4.8406     0.1264    -0.3218 C.3     
  13 O13            4.8665    -2.6233     0.1362 O.3     
  14 C14            6.2537    -4.5974     0.2663 C.ar    
  15 C15            7.1383    -4.6029     1.3285 C.ar    
  16 C16            8.4108    -5.1176     1.1656 C.ar    
  17 C17            8.7987    -5.6272    -0.0594 C.ar    
  18 C18            7.9138    -5.6225    -1.1215 C.ar    
  19 C19            6.6417    -5.1065    -0.9589 C.ar    
  20 C20            4.8643    -4.0420     0.4456 C.3     
  21 H21           -0.9688     1.8881    -0.0524 H       
  22 H22           -0.9263    -0.5709    -0.0638 H       
  23 H23            1.2268    -1.7681    -0.0546 H       
  24 H24            1.1343     3.1634    -0.0276 H       
  25 H25            5.5884     2.0886     0.1855 H       
  26 H26            4.6650     1.2945     1.4869 H       
  27 H27            5.7208    -0.4109     0.0315 H       
  28 H28            4.9170     0.2974    -1.3956 H       
  29 H29            6.8353    -4.2047     2.2856 H       
  30 H30            9.1022    -5.1212     1.9953 H       
  31 H31            9.7932    -6.0286    -0.1869 H       
  32 H32            8.2171    -6.0200    -2.0788 H       
  33 H33            5.9507    -5.1022    -1.7889 H       
  34 H34            4.5449    -4.1883     1.4774 H       
  35 H35            4.1771    -4.5589    -0.2243 H       
@<TRIPOS>BOND
   1    1    2 ar
   2    1    6 ar
   3    1   21 1
   4    2    3 ar
   5    2   22 1
   6    3    4 ar
   7    3   23 1
   8    4    5 ar
   9    4    8 1
  10    5    6 ar
  11    5    7 1
  12    6   24 1
  13    7   11 1
  14    8    9 am
  15    8   12 1
  16    9   10 2
  17    9   13 1
  18   11   12 1
  19   11   25 1
  20   11   26 1
  21   12   27 1
  22   12   28 1
  23   13   20 1
  24   14   15 ar
  25   14   19 ar
  26   14   20 1
  27   15   16 ar
  28   15   29 1
  29   16   17 ar
  30   16   30 1
  31   17   18 ar
  32   17   31 1
  33   18   19 ar
  34   18   32 1
  35   19   33 1
  36   20   34 1
  37   20   35 1

#	End of record

