#	Name: ASD01120155
#	Creating user name:	WinNT
#	Creation time:	15. 06. 2019 18:59

#	Modifying user name:	WinNT
#	Modification time:	15. 06. 2019 18:59

#	Program:	/corina/corina34_cracker 3.40 0067  02.08.2006

@<TRIPOS>MOLECULE
ASD01120155
  34   36    0    0    0
SMALL
NO_CHARGES


@<TRIPOS>ATOM
   1 C1            -0.0584     1.4136     0.6822 C.ar    
   2 C2            -0.0451     0.0192     0.7718 C.ar    
   3 C3            -1.2126    -0.7058     0.6584 C.ar    
   4 C4            -2.4223    -0.0337     0.4517 C.ar    
   5 C5            -2.4253     1.3807     0.3627 C.ar    
   6 C6            -1.2248     2.0896     0.4864 C.ar    
   7 N7            -3.5873    -0.6898     0.3338 N.ar    
   8 C8            -4.7049    -0.0307     0.1400 C.ar    
   9 N9            -4.7563     1.2886     0.0504 N.ar    
  10 C10           -3.6634     2.0338     0.1529 C.ar    
  11 C11           -6.0795     3.5020     0.6121 C.ar    
  12 C12           -4.9746     4.0418    -0.0336 C.ar    
  13 C13           -5.1071     5.2126    -0.7693 C.ar    
  14 C14           -6.3370     5.8363    -0.8565 C.ar    
  15 C15           -7.4356     5.2955    -0.2113 C.ar    
  16 C16           -7.3063     4.1304     0.5215 C.ar    
  17 N17           -3.7318     3.4085     0.0570 N.pl3   
  18 Br18          -6.5193     7.4302    -1.8575 Br      
  19 O19            1.1310    -0.6294     0.9724 O.3     
  20 C20            1.0797    -2.0550     1.0553 C.3     
  21 N21            1.2102     2.1660     0.8076 N.pl3   
  22 O22            1.2074     3.3816     0.7306 O.2     
  23 O23            2.2568     1.5696     0.9878 O.2     
  24 H24           -1.1934    -1.7834     0.7281 H       
  25 H25           -1.2222     3.1675     0.4196 H       
  26 H26           -5.6243    -0.5901     0.0492 H       
  27 H27           -5.9805     2.5894     1.1811 H       
  28 H28           -4.2498     5.6351    -1.2723 H       
  29 H29           -8.3958     5.7850    -0.2802 H       
  30 H30           -8.1655     3.7110     1.0238 H       
  31 H31           -2.9175     3.9355     0.0526 H       
  32 H32            2.0844    -2.4460     1.2164 H       
  33 H33            0.4383    -2.3479     1.8865 H       
  34 H34            0.6775    -2.4588     0.1261 H       
@<TRIPOS>BOND
   1    1    2 ar
   2    1   21 1
   3    1    6 ar
   4    2    3 ar
   5    2   19 1
   6    3    4 ar
   7    3   24 1
   8    4    5 ar
   9    4    7 ar
  10    5    6 ar
  11    5   10 ar
  12    6   25 1
  13    7    8 ar
  14    8    9 ar
  15    8   26 1
  16    9   10 ar
  17   10   17 1
  18   11   12 ar
  19   11   16 ar
  20   11   27 1
  21   12   13 ar
  22   12   17 1
  23   13   14 ar
  24   13   28 1
  25   14   15 ar
  26   14   18 1
  27   15   16 ar
  28   15   29 1
  29   16   30 1
  30   17   31 1
  31   19   20 1
  32   20   32 1
  33   20   33 1
  34   20   34 1
  35   21   22 2
  36   21   23 2

#	End of record

