#	Name: ASD04882086
#	Creating user name:	WinNT
#	Creation time:	15. 06. 2019 20:54

#	Modifying user name:	WinNT
#	Modification time:	15. 06. 2019 20:54

#	Program:	/corina/corina34_cracker 3.40 0067  02.08.2006

@<TRIPOS>MOLECULE
ASD04882086
  82   86    0    0    0
SMALL
NO_CHARGES


@<TRIPOS>ATOM
   1 C1             2.1920     1.8431    -0.7931 C.ar    
   2 C2             2.2329     0.4658    -0.7036 C.ar    
   3 C3             1.0540    -0.2545    -0.5568 C.ar    
   4 C4            -0.1621     0.4139    -0.5006 C.ar    
   5 C5            -0.1959     1.7918    -0.5908 C.ar    
   6 C6             0.9792     2.5056    -0.7369 C.ar    
   7 C7            -1.4435    -0.3633    -0.3419 C.3     
   8 N8             1.0918    -1.6478    -0.4663 N.3     
   9 C9             0.6820    -2.1001     0.8705 C.3     
  10 C10            2.4257    -2.1618    -0.8071 C.3     
  11 C11            2.4039    -3.6917    -0.7735 C.3     
  12 N12            1.9941    -4.1440     0.5633 N.3     
  13 C13            0.6602    -3.6301     0.9041 C.3     
  14 C14            2.0317    -5.5331     0.6535 C.ar    
  15 C15            1.2451    -6.3050    -0.1933 C.ar    
  16 C16            2.8649    -6.1493     1.5918 C.ar    
  17 C17            2.9020    -7.5276     1.6811 C.ar    
  18 C18            2.1055    -8.3018     0.8320 C.ar    
  19 C19            1.2789    -7.6795    -0.1072 C.ar    
  20 N20            3.6620    -5.3699     2.4407 N.am    
  21 C21            3.9205    -5.7891     3.6952 C.2     
  22 C22            4.6635    -4.9193     4.6245 C.2     
  23 O23            3.5406    -6.8852     4.0605 O.2     
  24 C24            6.1160    -4.8404     4.8437 C.2     
  25 N25            6.2769    -3.9288     5.7566 N.2     
  26 O26            5.2285    -3.4552     6.1206 O.3     
  27 C27            4.1711    -3.9779     5.4952 C.2     
  28 C28            2.1423    -9.7738     0.9233 C.2     
  29 O29            2.8656   -10.3145     1.7375 O.2     
  30 N30            1.3740   -10.5191     0.1043 N.am    
  31 C31            1.4105   -11.9809     0.1950 C.3     
  32 C32            0.4531   -12.5800    -0.8371 C.3     
  33 C33            0.4912   -14.1065    -0.7424 C.3     
  34 N34           -0.4256   -14.6802    -1.7307 N.am    
  35 C35           -0.0476   -15.0326    -3.1043 C.3     
  36 C36           -1.3790   -15.1724    -3.8752 C.3     
  37 C37           -2.3660   -15.5248    -2.7383 C.3     
  38 C38           -1.7196   -14.9567    -1.4941 C.2     
  39 O39           -2.2880   -14.7708    -0.4390 O.2     
  40 C40            2.7244    -3.6142     5.7089 C.3     
  41 C41            2.1309    -4.5043     6.8027 C.3     
  42 C42            7.1891    -5.6452     4.1567 C.3     
  43 H43            3.1084     2.4040    -0.9027 H       
  44 H44            3.1802    -0.0509    -0.7479 H       
  45 H45           -1.1412     2.3122    -0.5472 H       
  46 H46            0.9500     3.5829    -0.8068 H       
  47 H47           -1.6325    -0.5400     0.7169 H       
  48 H48           -2.2692     0.2065    -0.7682 H       
  49 H49           -1.3556    -1.3184    -0.8597 H       
  50 H50            1.3897    -1.7301     1.6124 H       
  51 H51           -0.3136    -1.7172     1.0946 H       
  52 H52            2.7013    -1.8238    -1.8060 H       
  53 H53            3.1532    -1.7925    -0.0843 H       
  54 H54            1.6961    -4.0617    -1.5154 H       
  55 H55            3.3995    -4.0746    -0.9976 H       
  56 H56            0.3845    -3.9680     1.9031 H       
  57 H57           -0.0674    -3.9993     0.1813 H       
  58 H58            0.6057    -5.8262    -0.9201 H       
  59 H59            3.5452    -8.0059     2.4049 H       
  60 H60            0.6632    -8.2765    -0.7636 H       
  61 H61            4.0277    -4.5286     2.1254 H       
  62 H62            0.7970   -10.0878    -0.5452 H       
  63 H63            2.4234   -12.3320    -0.0022 H       
  64 H64            1.1069   -12.2905     1.1950 H       
  65 H65           -0.5598   -12.2289    -0.6399 H       
  66 H66            0.7567   -12.2703    -1.8371 H       
  67 H67            1.5041   -14.4576    -0.9396 H       
  68 H68            0.1876   -14.4162     0.2576 H       
  69 H69            0.5610   -14.2417    -3.5428 H       
  70 H70            0.4957   -15.9776    -3.1153 H       
  71 H71           -1.6538   -14.2319    -4.3527 H       
  72 H72           -1.3232   -15.9781    -4.6071 H       
  73 H73           -3.3347   -15.0576    -2.9156 H       
  74 H74           -2.4736   -16.6058    -2.6480 H       
  75 H75            2.6533    -2.5696     6.0122 H       
  76 H76            2.1718    -3.7615     4.7810 H       
  77 H77            2.2019    -5.5489     6.4994 H       
  78 H78            2.6834    -4.3571     7.7306 H       
  79 H79            1.0845    -4.2413     6.9572 H       
  80 H80            7.5191    -5.1203     3.2602 H       
  81 H81            8.0340    -5.7761     4.8328 H       
  82 H82            6.7903    -6.6212     3.8802 H       
@<TRIPOS>BOND
   1    1    2 ar
   2    1    6 ar
   3    1   43 1
   4    2    3 ar
   5    2   44 1
   6    3    4 ar
   7    3    8 1
   8    4    5 ar
   9    4    7 1
  10    5    6 ar
  11    5   45 1
  12    6   46 1
  13    7   47 1
  14    7   48 1
  15    7   49 1
  16    8    9 1
  17    8   10 1
  18    9   13 1
  19    9   50 1
  20    9   51 1
  21   10   11 1
  22   10   52 1
  23   10   53 1
  24   11   12 1
  25   11   54 1
  26   11   55 1
  27   12   13 1
  28   12   14 1
  29   13   56 1
  30   13   57 1
  31   14   15 ar
  32   14   16 ar
  33   15   19 ar
  34   15   58 1
  35   16   17 ar
  36   16   20 1
  37   17   18 ar
  38   17   59 1
  39   18   19 ar
  40   18   28 1
  41   19   60 1
  42   20   21 am
  43   20   61 1
  44   21   22 1
  45   21   23 2
  46   22   24 1
  47   22   27 2
  48   24   25 2
  49   24   42 1
  50   25   26 1
  51   26   27 1
  52   27   40 1
  53   28   29 2
  54   28   30 am
  55   30   31 1
  56   30   62 1
  57   31   32 1
  58   31   63 1
  59   31   64 1
  60   32   33 1
  61   32   65 1
  62   32   66 1
  63   33   34 1
  64   33   67 1
  65   33   68 1
  66   34   35 1
  67   34   38 am
  68   35   36 1
  69   35   69 1
  70   35   70 1
  71   36   37 1
  72   36   71 1
  73   36   72 1
  74   37   38 1
  75   37   73 1
  76   37   74 1
  77   38   39 2
  78   40   41 1
  79   40   75 1
  80   40   76 1
  81   41   77 1
  82   41   78 1
  83   41   79 1
  84   42   80 1
  85   42   81 1
  86   42   82 1

#	End of record

