#	Name: ASD01912244
#	Creating user name:	WinNT
#	Creation time:	15. 06. 2019 19:59

#	Modifying user name:	WinNT
#	Modification time:	15. 06. 2019 19:59

#	Program:	/corina/corina34_cracker 3.40 0067  02.08.2006

@<TRIPOS>MOLECULE
ASD01912244
  45   46    0    0    0
SMALL
NO_CHARGES


@<TRIPOS>ATOM
   1 N1            -0.0178     1.4643     0.0101 N.am    
   2 C2             0.0021    -0.0041     0.0020 C.3     
   3 C3             0.7747    -0.4806    -1.2345 C.3     
   4 C4             2.0883     0.2677    -1.2953 C.2     
   5 C5             2.0586     1.7791    -1.2346 C.3     
   6 C6             1.2537     2.1990     0.0019 C.3     
   7 C7            -1.1897     2.1301     0.0193 C.2     
   8 O8            -2.2377     1.5153     0.0209 O.2     
   9 O9            -1.1990     3.4764     0.0267 O.3     
  10 C10            3.2435    -0.3887    -1.3993 C.2     
  11 C11            4.4768     0.3370    -1.4554 C.1     
  12 C12            5.4878     0.9319    -1.5015 C.1     
  13 C13            7.9415     0.9775    -1.6670 C.ar    
  14 C14            6.7211     1.6576    -1.5576 C.ar    
  15 C15            6.7247     3.0594    -1.5045 C.ar    
  16 C16            7.9383     3.7149    -1.5624 C.ar    
  17 C17            9.1129     2.9670    -1.6712 C.ar    
  18 N18            9.0743     1.6387    -1.7192 N.ar    
  19 C19           10.3755     3.6397    -1.7324 C.1     
  20 N20           11.3772     4.1734    -1.7809 N.1     
  21 C21           -2.4972     4.1266     0.0364 C.3     
  22 C22           -3.2702     3.7033     1.2870 C.3     
  23 C23           -2.3072     5.6448     0.0437 C.3     
  24 C24           -3.2821     3.7169    -1.2114 C.3     
  25 H25            0.4951    -0.3678     0.9035 H       
  26 H26           -1.0191    -0.3831    -0.0367 H       
  27 H27            0.9654    -1.5510    -1.1581 H       
  28 H28            0.1929    -0.2742    -2.1328 H       
  29 H29            3.0757     2.1634    -1.1583 H       
  30 H30            1.5834     2.1732    -2.1330 H       
  31 H31            1.0565     3.2703    -0.0369 H       
  32 H32            1.8186     1.9618     0.9034 H       
  33 H33            3.2496    -1.4678    -1.4412 H       
  34 H34            7.9505    -0.1018    -1.7042 H       
  35 H35            5.8007     3.6123    -1.4206 H       
  36 H36            7.9790     4.7935    -1.5245 H       
  37 H37           -2.7110     3.9952     2.1759 H       
  38 H38           -4.2448     4.1914     1.2943 H       
  39 H39           -3.4056     2.6218     1.2818 H       
  40 H40           -1.7565     5.9463    -0.8473 H       
  41 H41           -3.2818     6.1328     0.0510 H       
  42 H42           -1.7480     5.9366     0.9326 H       
  43 H43           -3.4175     2.6353    -1.2166 H       
  44 H44           -4.2567     4.2050    -1.2041 H       
  45 H45           -2.7314     4.0185    -2.1024 H       
@<TRIPOS>BOND
   1    1    2 1
   2    1    6 1
   3    1    7 am
   4    2    3 1
   5    2   25 1
   6    2   26 1
   7    3    4 1
   8    3   27 1
   9    3   28 1
  10    4    5 1
  11    4   10 2
  12    5    6 1
  13    5   29 1
  14    5   30 1
  15    6   31 1
  16    6   32 1
  17    7    8 2
  18    7    9 1
  19    9   21 1
  20   10   11 1
  21   10   33 1
  22   11   12 3
  23   12   14 1
  24   13   14 ar
  25   13   18 ar
  26   13   34 1
  27   14   15 ar
  28   15   16 ar
  29   15   35 1
  30   16   17 ar
  31   16   36 1
  32   17   18 ar
  33   17   19 1
  34   19   20 3
  35   21   22 1
  36   21   24 1
  37   21   23 1
  38   22   37 1
  39   22   38 1
  40   22   39 1
  41   23   40 1
  42   23   41 1
  43   23   42 1
  44   24   43 1
  45   24   44 1
  46   24   45 1

#	End of record

