#	Name: ASD01883493
#	Creating user name:	WinNT
#	Creation time:	15. 06. 2019 19:46

#	Modifying user name:	WinNT
#	Modification time:	15. 06. 2019 19:46

#	Program:	/corina/corina34_cracker 3.40 0067  02.08.2006

@<TRIPOS>MOLECULE
ASD01883493
  56   59    0    0    0
SMALL
NO_CHARGES


@<TRIPOS>ATOM
   1 N1            -0.4257     2.1291    -0.5572 N.am    
   2 C2            -0.2616     0.7997    -0.6894 C.2     
   3 C3            -1.3758    -0.0641    -0.5701 C.2     
   4 C4            -2.6390     0.4954    -0.3136 C.2     
   5 C5            -2.7465     1.8926    -0.1855 C.2     
   6 C6            -1.6467     2.6681    -0.3041 C.2     
   7 O7             0.8459     0.3405    -0.9123 O.2     
   8 C8            -1.2193    -1.4808    -0.7084 C.1     
   9 N9            -1.0952    -2.6046    -0.8181 N.1     
  10 C10            0.7366     3.0120    -0.6826 C.3     
  11 C11            0.9033     3.4310    -2.1446 C.3     
  12 C12            2.1172     4.3531    -2.2757 C.3     
  13 C13            2.3585     4.6719    -3.7525 C.3     
  14 N14           -3.7502    -0.3081    -0.1904 N.pl3   
  15 C15            1.8565     5.6515    -1.5096 C.3     
  16 C16           -5.1662     0.1377    -0.0333 C.3     
  17 C17           -5.8571    -0.3152    -1.3567 C.3     
  18 N18           -5.9393    -1.7928    -1.2627 N.3     
  19 C19           -5.2806    -2.1608     0.0303 C.3     
  20 C20           -3.7824    -1.7863    -0.1935 C.3     
  21 C21           -5.7206    -0.9606     0.9433 C.3     
  22 C22           -5.2618    -2.4311    -2.3991 C.3     
  23 C23           -5.2393    -3.9242    -2.1963 C.ar    
  24 C24           -6.3305    -4.6884    -2.5656 C.ar    
  25 C25           -6.3100    -6.0580    -2.3796 C.ar    
  26 C26           -5.1981    -6.6635    -1.8248 C.ar    
  27 C27           -4.1066    -5.8995    -1.4563 C.ar    
  28 C28           -4.1254    -4.5304    -1.6463 C.ar    
  29 H29           -3.7074     2.3445     0.0113 H       
  30 H30           -1.7416     3.7392    -0.2039 H       
  31 H31            0.5882     3.8980    -0.0653 H       
  32 H32            1.6311     2.4842    -0.3517 H       
  33 H33            1.0517     2.5450    -2.7619 H       
  34 H34            0.0088     3.9588    -2.4756 H       
  35 H35            2.9960     3.8577    -1.8627 H       
  36 H36            1.4797     5.1672    -4.1655 H       
  37 H37            3.2233     5.3287    -3.8459 H       
  38 H38            2.5442     3.7468    -4.2983 H       
  39 H39            1.6846     5.4244    -0.4575 H       
  40 H40            2.7213     6.3084    -1.6030 H       
  41 H41            0.9777     6.1469    -1.9226 H       
  42 H42           -5.3126     1.1788     0.2545 H       
  43 H43           -6.8557     0.1157    -1.4291 H       
  44 H44           -5.2549    -0.0235    -2.2171 H       
  45 H45           -5.4775    -3.1668     0.4008 H       
  46 H46           -3.4339    -2.1757    -1.1501 H       
  47 H47           -3.1696    -2.1748     0.6199 H       
  48 H48           -5.2054    -0.9596     1.9038 H       
  49 H49           -6.8029    -0.9035     1.0599 H       
  50 H50           -5.7972    -2.1974    -3.3193 H       
  51 H51           -4.2398    -2.0585    -2.4687 H       
  52 H52           -7.1992    -4.2152    -2.9991 H       
  53 H53           -7.1628    -6.6549    -2.6675 H       
  54 H54           -5.1823    -7.7335    -1.6788 H       
  55 H55           -3.2380    -6.3726    -1.0225 H       
  56 H56           -3.2726    -3.9335    -1.3585 H       
@<TRIPOS>BOND
   1    1    2 am
   2    1   10 1
   3    1    6 1
   4    2    3 1
   5    2    7 2
   6    3    4 2
   7    3    8 1
   8    4    5 1
   9    4   14 1
  10    5    6 2
  11    5   29 1
  12    6   30 1
  13    8    9 3
  14   10   11 1
  15   10   31 1
  16   10   32 1
  17   11   12 1
  18   11   33 1
  19   11   34 1
  20   12   13 1
  21   12   15 1
  22   12   35 1
  23   13   36 1
  24   13   37 1
  25   13   38 1
  26   14   16 1
  27   14   20 1
  28   15   39 1
  29   15   40 1
  30   15   41 1
  31   16   17 1
  32   16   21 1
  33   16   42 1
  34   17   18 1
  35   17   43 1
  36   17   44 1
  37   18   19 1
  38   18   22 1
  39   19   20 1
  40   19   21 1
  41   19   45 1
  42   20   46 1
  43   20   47 1
  44   21   48 1
  45   21   49 1
  46   22   23 1
  47   22   50 1
  48   22   51 1
  49   23   24 ar
  50   23   28 ar
  51   24   25 ar
  52   24   52 1
  53   25   26 ar
  54   25   53 1
  55   26   27 ar
  56   26   54 1
  57   27   28 ar
  58   27   55 1
  59   28   56 1

#	End of record

