#	Name: ASD03240430
#	Creating user name:	WinNT
#	Creation time:	15. 06. 2019 20:34

#	Modifying user name:	WinNT
#	Modification time:	15. 06. 2019 20:34

#	Program:	/corina/corina34_cracker 3.40 0067  02.08.2006

@<TRIPOS>MOLECULE
ASD03240430
  34   35    0    0    0
SMALL
NO_CHARGES


@<TRIPOS>ATOM
   1 C1            -0.0157     1.3879     0.1332 C.ar    
   2 C2            -1.0123     1.5506    -0.8109 C.ar    
   3 C3             1.4975     4.3503    -1.1695 C.ar    
   4 C4             0.9847     3.6229    -0.1117 C.ar    
   5 C5             1.2782     2.1491     0.0014 C.3     
   6 C6             1.2291     5.7021    -1.2736 C.ar    
   7 C7             0.4470     6.3273    -0.3188 C.ar    
   8 C8            -0.0660     5.5987     0.7396 C.ar    
   9 C9             0.2031     4.2470     0.8426 C.ar    
  10 Cl10           0.1098     8.0253    -0.4485 Cl      
  11 C11           -2.1995     0.8531    -0.6903 C.ar    
  12 C12           -2.3902    -0.0081     0.3755 C.ar    
  13 C13           -1.3924    -0.1706     1.3200 C.ar    
  14 C14           -0.2078     0.5314     1.2012 C.ar    
  15 Cl15          -3.8812    -0.8842     0.5279 Cl      
  16 C16            2.1471     1.8953     1.2349 C.3     
  17 C17            2.0098     1.6864    -1.2322 C.2     
  18 O18            3.1130     1.2033    -1.1348 O.2     
  19 O19            1.4359     1.8111    -2.4392 O.3     
  20 C20            2.1986     1.3443    -3.5832 C.3     
  21 H21           -0.8635     2.2233    -1.6427 H       
  22 H22            2.1117     3.8631    -1.9124 H       
  23 H23            1.6301     6.2704    -2.0998 H       
  24 H24           -0.6766     6.0862     1.4852 H       
  25 H25           -0.1975     3.6781     1.6686 H       
  26 H26           -2.9781     0.9806    -1.4278 H       
  27 H27           -1.5409    -0.8425     2.1524 H       
  28 H28            0.5713     0.4044     1.9383 H       
  29 H29            1.6180     2.2299     2.1271 H       
  30 H30            2.3594     0.8293     1.3167 H       
  31 H31            3.0830     2.4459     1.1396 H       
  32 H32            2.4117     0.2815    -3.4686 H       
  33 H33            1.6212     1.5029    -4.4940 H       
  34 H34            3.1353     1.8981    -3.6457 H       
@<TRIPOS>BOND
   1    1    2 ar
   2    1    5 1
   3    1   14 ar
   4    2   11 ar
   5    2   21 1
   6    3    4 ar
   7    3    6 ar
   8    3   22 1
   9    4    5 1
  10    4    9 ar
  11    5   17 1
  12    5   16 1
  13    6    7 ar
  14    6   23 1
  15    7    8 ar
  16    7   10 1
  17    8    9 ar
  18    8   24 1
  19    9   25 1
  20   11   12 ar
  21   11   26 1
  22   12   13 ar
  23   12   15 1
  24   13   14 ar
  25   13   27 1
  26   14   28 1
  27   16   29 1
  28   16   30 1
  29   16   31 1
  30   17   18 2
  31   17   19 1
  32   19   20 1
  33   20   32 1
  34   20   33 1
  35   20   34 1

#	End of record

