#	Name: ASD03320001
#	Creating user name:	WinNT
#	Creation time:	15. 06. 2019 20:35

#	Modifying user name:	WinNT
#	Modification time:	15. 06. 2019 20:35

#	Program:	/corina/corina34_cracker 3.40 0067  02.08.2006

@<TRIPOS>MOLECULE
ASD03320001
  47   49    0    0    0
SMALL
NO_CHARGES


@<TRIPOS>ATOM
   1 C1            -3.4591    -4.8552    -0.6759 C.ar    
   2 C2            -4.3696    -4.0641    -1.3609 C.ar    
   3 C3            -4.4167    -2.7040    -1.1265 C.ar    
   4 C4            -3.5523    -2.1284    -0.2047 C.ar    
   5 C5            -2.6411    -2.9211     0.4807 C.ar    
   6 C6            -2.5989    -4.2818     0.2489 C.ar    
   7 O7            -3.4136    -6.1946    -0.9071 O.3     
   8 N8            -3.5991    -0.7494     0.0333 N.pl3   
   9 C9            -4.8055    -0.0708    -0.0557 C.ar    
  10 N10           -5.9427    -0.7367    -0.2490 N.ar    
  11 C11           -7.0929    -0.1000    -0.3348 C.ar    
  12 N12           -7.1722     1.2111    -0.2347 N.ar    
  13 C13           -6.0806     1.9493    -0.0409 C.ar    
  14 C14           -4.8462     1.3155     0.0612 C.ar    
  15 N15           -6.1737     3.3286     0.0632 N.pl3   
  16 C16           -2.4517    -6.9484    -0.1666 C.3     
  17 F17           -2.7055    -6.8116     1.2024 F       
  18 F18           -2.5407    -8.2978    -0.5248 F       
  19 F19           -1.1670    -6.4738    -0.4523 F       
  20 C20           -4.9661     4.1303     0.2763 C.3     
  21 C21           -5.3440     5.6108     0.3544 C.3     
  22 N22           -4.1332     6.4146     0.5680 N.3     
  23 C23           -4.4184     7.8484     0.4126 C.3     
  24 C24           -3.1468     8.6505     0.7016 C.3     
  25 O25           -2.1022     8.2087    -0.1696 O.3     
  26 C26           -1.7980     6.8169    -0.0441 C.3     
  27 C27           -3.0559     5.9963    -0.3407 C.3     
  28 H28           -5.0416    -4.5119    -2.0781 H       
  29 H29           -5.1255    -2.0882    -1.6602 H       
  30 H30           -1.9685    -2.4742     1.1978 H       
  31 H31           -1.8905    -4.8985     0.7821 H       
  32 H32           -2.7879    -0.2686     0.2605 H       
  33 H33           -7.9969    -0.6695    -0.4921 H       
  34 H34           -3.9422     1.8850     0.2187 H       
  35 H35           -7.0383     3.7629    -0.0051 H       
  36 H36           -4.4888     3.8275     1.2082 H       
  37 H37           -4.2758     3.9747    -0.5528 H       
  38 H38           -5.8214     5.9136    -0.5776 H       
  39 H39           -6.0344     5.7663     1.1834 H       
  40 H40           -4.7490     8.0453    -0.6073 H       
  41 H41           -5.2008     8.1419     1.1125 H       
  42 H42           -3.3383     9.7100     0.5320 H       
  43 H43           -2.8464     8.4955     1.7378 H       
  44 H44           -1.0140     6.5503    -0.7530 H       
  45 H45           -1.4583     6.6086     0.9705 H       
  46 H46           -2.8437     4.9377    -0.1906 H       
  47 H47           -3.3647     6.1635    -1.3726 H       
@<TRIPOS>BOND
   1    1    2 ar
   2    1    7 1
   3    1    6 ar
   4    2    3 ar
   5    2   28 1
   6    3    4 ar
   7    3   29 1
   8    4    5 ar
   9    4    8 1
  10    5    6 ar
  11    5   30 1
  12    6   31 1
  13    7   16 1
  14    8    9 1
  15    8   32 1
  16    9   10 ar
  17    9   14 ar
  18   10   11 ar
  19   11   12 ar
  20   11   33 1
  21   12   13 ar
  22   13   14 ar
  23   13   15 1
  24   14   34 1
  25   15   20 1
  26   15   35 1
  27   16   17 1
  28   16   18 1
  29   16   19 1
  30   20   21 1
  31   20   36 1
  32   20   37 1
  33   21   22 1
  34   21   38 1
  35   21   39 1
  36   22   23 1
  37   22   27 1
  38   23   24 1
  39   23   40 1
  40   23   41 1
  41   24   25 1
  42   24   42 1
  43   24   43 1
  44   25   26 1
  45   26   27 1
  46   26   44 1
  47   26   45 1
  48   27   46 1
  49   27   47 1

#	End of record

