#	Name: ASD02190011
#	Creating user name:	WinNT
#	Creation time:	15. 06. 2019 20:18

#	Modifying user name:	WinNT
#	Modification time:	15. 06. 2019 20:18

#	Program:	/corina/corina34_cracker 3.40 0067  02.08.2006

@<TRIPOS>MOLECULE
ASD02190011
  46   48    0    0    0
SMALL
NO_CHARGES


@<TRIPOS>ATOM
   1 C1            -0.0366     1.5310     0.0056 C.3     
   2 C2             2.0186     2.3662     1.1845 C.ar    
   3 N3             3.2515     2.8458     1.1472 N.ar    
   4 C4             3.8664     3.0586    -0.0125 C.ar    
   5 N5             3.2714     2.7998    -1.1728 N.ar    
   6 C6             2.0347     2.3171    -1.2049 C.ar    
   7 C7             1.3673     2.0787    -0.0009 C.ar    
   8 N8             1.4160     2.0483    -2.4169 N.pl3   
   9 C9             2.0422     2.3963    -3.6102 C.ar    
  10 C10            1.8612     1.6098    -4.7446 C.ar    
  11 C11            2.4789     1.9510    -5.9259 C.ar    
  12 C12            3.2889     3.0894    -5.9862 C.ar    
  13 C13            3.4682     3.8774    -4.8449 C.ar    
  14 C14            2.8436     3.5332    -3.6681 C.ar    
  15 C15            5.2386     3.5939    -0.0115 C.2     
  16 C16            5.9544     3.8990     1.0916 C.2     
  17 C17            0.0118     0.0250     0.0320 C.2     
  18 C18           -0.6195    -0.6343     0.9716 C.2     
  19 C19            7.2176     4.3860     0.8433 C.2     
  20 C20            7.5426     4.4824    -0.4580 C.2     
  21 S21            6.1987     3.9268    -1.4469 S.3     
  22 C22            1.3337     2.1300     2.5059 C.3     
  23 C23            3.9526     3.4576    -7.2499 C.2     
  24 O24            3.7962     2.7717    -8.2406 O.2     
  25 O25            4.7327     4.5549    -7.3063 O.3     
  26 O26            8.7298     4.9343    -0.9355 O.3     
  27 C27            8.8892     4.9634    -2.3553 C.3     
  28 H28           -0.5638     1.8931     0.8883 H       
  29 H29           -0.5599     1.8620    -0.8914 H       
  30 H30            0.5469     1.6179    -2.4329 H       
  31 H31            1.2356     0.7308    -4.6973 H       
  32 H32            2.3387     1.3400    -6.8054 H       
  33 H33            4.0933     4.7570    -4.8880 H       
  34 H34            2.9814     4.1415    -2.7864 H       
  35 H35            5.5661     3.7712     2.0912 H       
  36 H36            0.5671    -0.5107    -0.7237 H       
  37 H37           -0.5848    -1.7136     0.9905 H       
  38 H38           -1.1747    -0.0985     1.7273 H       
  39 H39            7.8964     4.6696     1.6340 H       
  40 H40            0.7955     3.0303     2.8022 H       
  41 H41            0.6312     1.3023     2.4081 H       
  42 H42            2.0790     1.8864     3.2630 H       
  43 H43            5.1468     4.7559    -8.1568 H       
  44 H44            9.8803     5.3442    -2.6019 H       
  45 H45            8.7779     3.9551    -2.7541 H       
  46 H46            8.1311     5.6129    -2.7929 H       
@<TRIPOS>BOND
   1    1   17 1
   2    1    7 1
   3    1   28 1
   4    1   29 1
   5    2    3 ar
   6    2   22 1
   7    2    7 ar
   8    3    4 ar
   9    4    5 ar
  10    4   15 1
  11    5    6 ar
  12    6    7 ar
  13    6    8 1
  14    8    9 1
  15    8   30 1
  16    9   10 ar
  17    9   14 ar
  18   10   11 ar
  19   10   31 1
  20   11   12 ar
  21   11   32 1
  22   12   13 ar
  23   12   23 1
  24   13   14 ar
  25   13   33 1
  26   14   34 1
  27   15   16 2
  28   15   21 1
  29   16   19 1
  30   16   35 1
  31   17   18 2
  32   17   36 1
  33   18   37 1
  34   18   38 1
  35   19   20 2
  36   19   39 1
  37   20   21 1
  38   20   26 1
  39   22   40 1
  40   22   41 1
  41   22   42 1
  42   23   24 2
  43   23   25 1
  44   25   43 1
  45   26   27 1
  46   27   44 1
  47   27   45 1
  48   27   46 1

#	End of record

