#	Name: ASD08070042
#	Creating user name:	WinNT
#	Creation time:	15. 06. 2019 21:14

#	Modifying user name:	WinNT
#	Modification time:	15. 06. 2019 21:14

#	Program:	/corina/corina34_cracker 3.40 0067  02.08.2006

@<TRIPOS>MOLECULE
ASD08070042
  36   38    0    0    0
SMALL
NO_CHARGES


@<TRIPOS>ATOM
   1 C1            -0.0161     1.3340     0.0094 C.2     
   2 C2             0.0021    -0.0041     0.0020 C.2     
   3 C3             1.2207     1.9340     0.0008 C.2     
   4 C4             2.2547     1.0408    -0.0139 C.2     
   5 S5             1.6035    -0.5925    -0.0164 S.3     
   6 C6             3.6787     1.3884    -0.0264 C.2     
   7 O7             4.0199     2.5566    -0.0240 O.2     
   8 N8             4.6101     0.4144    -0.0404 N.am    
   9 C9             6.0332     0.7618    -0.0529 C.3     
  10 C10            6.8385    -0.3912     0.5429 C.3     
  11 C11            6.4659     1.0331    -1.4699 C.ar    
  12 C12            7.6634     0.5817    -1.9784 C.ar    
  13 C13            8.3287    -0.1031     0.3257 C.3     
  14 C14            8.0063     0.8736    -3.2920 C.ar    
  15 C15            5.6093     1.7692    -2.2779 C.ar    
  16 C16           -1.2278    -0.8749     0.0095 C.3     
  17 C17            8.6329    -0.2354    -1.1652 C.3     
  18 C18            5.9503     2.0551    -3.5840 C.ar    
  19 C19            7.1548     1.6068    -4.0927 C.ar    
  20 H20           -0.9352     1.9010     0.0169 H       
  21 H21            1.3612     3.0048     0.0049 H       
  22 H22            4.3381    -0.5167    -0.0423 H       
  23 H23            6.1897     1.6577     0.5479 H       
  24 H24            6.6316    -0.4705     1.6101 H       
  25 H25            6.5684    -1.3229     0.0458 H       
  26 H26            8.5593     0.9088     0.6591 H       
  27 H27            8.9269    -0.8204     0.8875 H       
  28 H28            8.9475     0.5242    -3.6902 H       
  29 H29            4.6684     2.1203    -1.8809 H       
  30 H30           -1.5345    -1.0794    -1.0162 H       
  31 H31           -1.0050    -1.8140     0.5162 H       
  32 H32           -2.0335    -0.3614     0.5342 H       
  33 H33            8.5531    -1.2827    -1.4566 H       
  34 H34            9.6473     0.1142    -1.3574 H       
  35 H35            5.2783     2.6269    -4.2067 H       
  36 H36            7.4284     1.8297    -5.1134 H       
@<TRIPOS>BOND
   1    1    2 2
   2    1    3 1
   3    1   20 1
   4    2   16 1
   5    2    5 1
   6    3    4 2
   7    3   21 1
   8    4    5 1
   9    4    6 1
  10    6    7 2
  11    6    8 am
  12    8    9 1
  13    8   22 1
  14    9   10 1
  15    9   11 1
  16    9   23 1
  17   10   13 1
  18   10   24 1
  19   10   25 1
  20   11   12 ar
  21   11   15 ar
  22   12   14 ar
  23   12   17 1
  24   13   17 1
  25   13   26 1
  26   13   27 1
  27   14   19 ar
  28   14   28 1
  29   15   18 ar
  30   15   29 1
  31   16   30 1
  32   16   31 1
  33   16   32 1
  34   17   33 1
  35   17   34 1
  36   18   19 ar
  37   18   35 1
  38   19   36 1

#	End of record

