#	Name: ASD01920017
#	Creating user name:	WinNT
#	Creation time:	15. 06. 2019 20:11

#	Modifying user name:	WinNT
#	Modification time:	15. 06. 2019 20:11

#	Program:	/corina/corina34_cracker 3.40 0067  02.08.2006

@<TRIPOS>MOLECULE
ASD01920017
  47   50    0    0    0
SMALL
NO_CHARGES


@<TRIPOS>ATOM
   1 N1            -0.2554     0.4662    -0.3194 N.am    
   2 C2             0.0125    -0.8760    -0.3904 C.2     
   3 C3            -0.9866    -1.7941    -0.5435 C.2     
   4 C4            -2.3145    -1.3621    -0.6301 C.2     
   5 C5            -2.5801     0.0178    -0.5558 C.2     
   6 C6            -1.5225     0.9276    -0.3933 C.2     
   7 O7            -3.5085    -1.9526    -0.7768 O.3     
   8 N8            -4.4271    -1.1658    -0.8018 N.2     
   9 C9            -4.0397     0.0816    -0.6795 C.2     
  10 C10           -4.8936     1.2944    -0.6688 C.ar    
  11 O11           -1.7458     2.1243    -0.3279 O.2     
  12 C12            0.8491     1.4145    -0.1548 C.3     
  13 C13            1.4115    -1.3392    -0.2998 C.ar    
  14 C14           -6.0384     1.3508    -1.4616 C.ar    
  15 C15           -6.8292     2.4818    -1.4477 C.ar    
  16 C16           -6.4875     3.5581    -0.6488 C.ar    
  17 C17           -5.3521     3.5078     0.1398 C.ar    
  18 C18           -4.5573     2.3795     0.1385 C.ar    
  19 C19            1.7538    -2.3650     0.5847 C.ar    
  20 C20            3.0603    -2.7946     0.6658 C.ar    
  21 C21            4.0368    -2.2091    -0.1304 C.ar    
  22 C22            3.7007    -1.1883    -1.0110 C.ar    
  23 C23            2.3955    -0.7568    -1.1024 C.ar    
  24 O24            5.3234    -2.6354    -0.0474 O.3     
  25 C25            5.6217    -3.6061     0.9580 C.3     
  26 C26            5.3156    -5.0061     0.4220 C.3     
  27 C27            7.1027    -3.5153     1.3311 C.3     
  28 H28           -0.7532    -2.8472    -0.5979 H       
  29 H29            1.2725     1.6520    -1.1307 H       
  30 H30            0.4781     2.3269     0.3121 H       
  31 H31            1.6185     0.9701     0.4766 H       
  32 H32           -6.3060     0.5112    -2.0860 H       
  33 H33           -7.7164     2.5267    -2.0619 H       
  34 H34           -7.1092     4.4411    -0.6410 H       
  35 H35           -5.0898     4.3511     0.7614 H       
  36 H36           -3.6711     2.3413     0.7546 H       
  37 H37            0.9954    -2.8204     1.2042 H       
  38 H38            3.3259    -3.5873     1.3495 H       
  39 H39            4.4629    -0.7353    -1.6277 H       
  40 H40            2.1350     0.0368    -1.7872 H       
  41 H41            5.0121    -3.4138     1.8409 H       
  42 H42            4.2605    -5.0707     0.1561 H       
  43 H43            5.9252    -5.1984    -0.4609 H       
  44 H44            5.5431    -5.7465     1.1889 H       
  45 H45            7.3207    -2.5180     1.7130 H       
  46 H46            7.3302    -4.2558     2.0980 H       
  47 H47            7.7123    -3.7077     0.4482 H       
@<TRIPOS>BOND
   1    1    2 1
   2    1   12 1
   3    1    6 am
   4    2    3 2
   5    2   13 1
   6    3    4 1
   7    3   28 1
   8    4    5 2
   9    4    7 1
  10    5    6 1
  11    5    9 1
  12    6   11 2
  13    7    8 1
  14    8    9 2
  15    9   10 1
  16   10   14 ar
  17   10   18 ar
  18   12   29 1
  19   12   30 1
  20   12   31 1
  21   13   19 ar
  22   13   23 ar
  23   14   15 ar
  24   14   32 1
  25   15   16 ar
  26   15   33 1
  27   16   17 ar
  28   16   34 1
  29   17   18 ar
  30   17   35 1
  31   18   36 1
  32   19   20 ar
  33   19   37 1
  34   20   21 ar
  35   20   38 1
  36   21   22 ar
  37   21   24 1
  38   22   23 ar
  39   22   39 1
  40   23   40 1
  41   24   25 1
  42   25   26 1
  43   25   27 1
  44   25   41 1
  45   26   42 1
  46   26   43 1
  47   26   44 1
  48   27   45 1
  49   27   46 1
  50   27   47 1

#	End of record

