#	Name: ASD03430148
#	Creating user name:	WinNT
#	Creation time:	15. 06. 2019 20:40

#	Modifying user name:	WinNT
#	Modification time:	15. 06. 2019 20:40

#	Program:	/corina/corina34_cracker 3.40 0067  02.08.2006

@<TRIPOS>MOLECULE
ASD03430148
  61   66    0    0    0
SMALL
NO_CHARGES


@<TRIPOS>ATOM
   1 C1            -0.0166     1.3731     0.0096 C.ar    
   2 C2             0.0021    -0.0041     0.0020 C.ar    
   3 C3             1.2042    -0.6801    -0.0037 C.ar    
   4 C4             2.4064     0.0226     0.0069 C.ar    
   5 C5             2.3789     1.4121     0.0039 C.ar    
   6 C6             1.1699     2.0972     0.0022 C.ar    
   7 O7             3.4725    -0.8269     0.0325 O.3     
   8 C8             1.5601    -2.1417    -0.0330 C.3     
   9 C9             3.0504    -2.1336    -0.4017 C.3     
  10 C10            0.4369    -3.8650     1.0109 C.ar    
  11 C11            1.3140    -2.8180     1.2832 C.ar    
  12 C12            0.7430    -2.9080    -1.0329 C.2     
  13 N13            0.1236    -3.8915    -0.3499 N.am    
  14 O14            0.6571    -2.6857    -2.2222 O.2     
  15 C15            1.7632    -2.5964     2.5654 C.ar    
  16 C16            1.3449    -3.4168     3.5984 C.ar    
  17 C17            0.4739    -4.4591     3.3397 C.ar    
  18 C18            0.0205    -4.6852     2.0566 C.ar    
  19 C19           -1.1514     2.3780     0.0353 C.3     
  20 C20           -0.4169     3.6802     0.4334 C.3     
  21 O21            0.9269     3.4375    -0.0164 O.3     
  22 C22           -0.7732    -4.8739    -0.9637 C.3     
  23 C23           -2.2076    -4.3423    -0.9361 C.3     
  24 C24           -3.1442    -5.3683    -1.5771 C.3     
  25 N25           -4.5177    -4.8593    -1.5507 N.am    
  26 C26           -5.5204    -5.5987    -2.0647 C.2     
  27 C27           -6.9036    -5.0861    -2.0380 C.ar    
  28 O28           -5.2851    -6.6883    -2.5503 O.2     
  29 C29           -7.9493    -5.8516    -2.5713 C.ar    
  30 C30           -9.2459    -5.3599    -2.5405 C.ar    
  31 C31           -9.5036    -4.1219    -1.9866 C.ar    
  32 C32           -8.4724    -3.3619    -1.4588 C.ar    
  33 C33           -7.1793    -3.8372    -1.4758 C.ar    
  34 O34           -7.6945    -7.0678    -3.1156 O.3     
  35 C35           -8.8103    -7.7907    -3.6395 C.3     
  36 F36           -9.4147    -7.0431    -4.6559 F       
  37 F37           -8.3716    -9.0137    -4.1581 F       
  38 F38           -9.7369    -8.0229    -2.6175 F       
  39 H39           -0.9264    -0.5557     0.0009 H       
  40 H40            3.3066     1.9651     0.0036 H       
  41 H41            3.1836    -2.2456    -1.4777 H       
  42 H42            3.5871    -2.9132     0.1390 H       
  43 H43            2.4432    -1.7815     2.7654 H       
  44 H44            1.6983    -3.2437     4.6042 H       
  45 H45            0.1473    -5.0993     4.1458 H       
  46 H46           -0.6595    -5.5014     1.8622 H       
  47 H47           -1.6088     2.4743    -0.9494 H       
  48 H48           -1.8955     2.1061     0.7839 H       
  49 H49           -0.8473     4.5392    -0.0813 H       
  50 H50           -0.4426     3.8232     1.5137 H       
  51 H51           -0.4699    -5.0476    -1.9962 H       
  52 H52           -0.7219    -5.8100    -0.4076 H       
  53 H53           -2.5109    -4.1687     0.0963 H       
  54 H54           -2.2589    -3.4062    -1.4922 H       
  55 H55           -2.8409    -5.5420    -2.6096 H       
  56 H56           -3.0929    -6.3044    -1.0210 H       
  57 H57           -4.7054    -3.9901    -1.1633 H       
  58 H58          -10.0549    -5.9462    -2.9506 H       
  59 H59          -10.5149    -3.7435    -1.9650 H       
  60 H60           -8.6839    -2.3943    -1.0279 H       
  61 H61           -6.3786    -3.2413    -1.0632 H       
@<TRIPOS>BOND
   1    1    2 ar
   2    1    6 ar
   3    1   19 1
   4    2    3 ar
   5    2   39 1
   6    3    4 ar
   7    3    8 1
   8    4    5 ar
   9    4    7 1
  10    5    6 ar
  11    5   40 1
  12    6   21 1
  13    7    9 1
  14    8    9 1
  15    8   11 1
  16    8   12 1
  17    9   41 1
  18    9   42 1
  19   10   11 ar
  20   10   13 1
  21   10   18 ar
  22   11   15 ar
  23   12   13 am
  24   12   14 2
  25   13   22 1
  26   15   16 ar
  27   15   43 1
  28   16   17 ar
  29   16   44 1
  30   17   18 ar
  31   17   45 1
  32   18   46 1
  33   19   20 1
  34   19   47 1
  35   19   48 1
  36   20   21 1
  37   20   49 1
  38   20   50 1
  39   22   23 1
  40   22   51 1
  41   22   52 1
  42   23   24 1
  43   23   53 1
  44   23   54 1
  45   24   25 1
  46   24   55 1
  47   24   56 1
  48   25   26 am
  49   25   57 1
  50   26   27 1
  51   26   28 2
  52   27   29 ar
  53   27   33 ar
  54   29   30 ar
  55   29   34 1
  56   30   31 ar
  57   30   58 1
  58   31   32 ar
  59   31   59 1
  60   32   33 ar
  61   32   60 1
  62   33   61 1
  63   34   35 1
  64   35   36 1
  65   35   37 1
  66   35   38 1

#	End of record

