#	Name: ASD08178071
#	Creating user name:	WinNT
#	Creation time:	15. 06. 2019 21:18

#	Modifying user name:	WinNT
#	Modification time:	15. 06. 2019 21:18

#	Program:	/corina/corina34_cracker 3.40 0067  02.08.2006

@<TRIPOS>MOLECULE
ASD08178071
  64   67    0    0    0
SMALL
NO_CHARGES


@<TRIPOS>ATOM
   1 N1            -0.0150     1.2583     0.0090 N.2     
   2 N2             0.0021    -0.0041     0.0020 N.2     
   3 C3             1.1271     1.8769     0.0014 C.2     
   4 S4             2.3826     0.7116    -0.0169 S.3     
   5 C5             1.1681    -0.5677    -0.0121 C.2     
   6 N6             1.3017     3.2566     0.0067 N.am    
   7 C7             0.2284     4.0717     0.0214 C.2     
   8 O8            -0.8897     3.6019     0.0299 O.2     
   9 C9             1.4387    -2.0502    -0.0227 C.3     
  10 C10            1.5165    -2.5442    -1.4687 C.3     
  11 C11            1.7912    -4.0493    -1.4794 C.3     
  12 C12            1.8690    -4.5432    -2.9254 C.3     
  13 C13            2.1395    -6.0257    -2.9359 C.2     
  14 N14            1.2478    -6.9651    -2.9329 N.2     
  15 S15            3.7275    -6.7933    -2.9623 S.3     
  16 C16            2.9647    -8.3272    -2.9581 C.2     
  17 N17            1.6777    -8.1521    -2.9433 N.2     
  18 N18            3.6154    -9.5562    -2.9730 N.am    
  19 C19            2.8993   -10.6980    -2.9678 C.2     
  20 O20            1.6874   -10.6536    -2.9501 O.2     
  21 C21            3.6044   -12.0297    -2.9839 C.3     
  22 C22            0.4176     5.5667     0.0272 C.3     
  23 C23            1.0637     5.9963    -1.2648 C.ar    
  24 C24            4.3887   -12.1984    -1.7081 C.ar    
  25 C25            3.7693   -12.6955    -0.5767 C.ar    
  26 C26            2.4354     6.1543    -1.3325 C.ar    
  27 C27            3.0280     6.5484    -2.5175 C.ar    
  28 C28            2.2492     6.7840    -3.6350 C.ar    
  29 C29            0.8776     6.6251    -3.5675 C.ar    
  30 C30            0.2854     6.2268    -2.3836 C.ar    
  31 O31           -0.8733     6.2175     0.1624 O.3     
  32 C32            5.7288   -11.8613    -1.6709 C.ar    
  33 C33            6.4481   -12.0160    -0.5006 C.ar    
  34 C34            5.8273   -12.5073     0.6325 C.ar    
  35 C35            4.4887   -12.8502     0.5936 C.ar    
  36 O36            2.6241   -13.0952    -3.0938 O.3     
  37 C37           -0.8941     7.4068     0.7845 C.2     
  38 C38            3.0114   -14.2174    -3.7202 C.2     
  39 O39           -1.9393     7.9960     0.9268 O.2     
  40 O40            2.2389   -15.1384    -3.8422 O.2     
  41 H41            2.1959     3.6323    -0.0001 H       
  42 H42            2.3843    -2.2506     0.4811 H       
  43 H43            0.6334    -2.5702     0.4961 H       
  44 H44            0.5709    -2.3438    -1.9724 H       
  45 H45            2.3218    -2.0242    -1.9874 H       
  46 H46            2.7368    -4.2496    -0.9756 H       
  47 H47            0.9858    -4.5693    -0.9606 H       
  48 H48            0.9234    -4.3429    -3.4291 H       
  49 H49            2.6743    -4.0232    -3.4441 H       
  50 H50            4.5846    -9.5917    -2.9871 H       
  51 H51            4.2832   -12.0712    -3.8358 H       
  52 H52            1.0562     5.8489     0.8642 H       
  53 H53            2.7233   -12.9627    -0.6069 H       
  54 H54            3.0439     5.9703    -0.4594 H       
  55 H55            4.0996     6.6726    -2.5702 H       
  56 H56            2.7121     7.0926    -4.5606 H       
  57 H57            0.2691     6.8094    -4.4405 H       
  58 H58           -0.7862     6.1026    -2.3309 H       
  59 H59            6.2138   -11.4775    -2.5562 H       
  60 H60            7.4953   -11.7533    -0.4717 H       
  61 H61            6.3894   -12.6284     1.5467 H       
  62 H62            4.0036   -13.2340     1.4789 H       
  63 H63            0.0235     7.8370     1.1577 H       
  64 H64            4.0134   -14.2971    -4.1151 H       
@<TRIPOS>BOND
   1    1    2 1
   2    1    3 2
   3    2    5 2
   4    3    4 1
   5    3    6 1
   6    4    5 1
   7    5    9 1
   8    6    7 am
   9    6   41 1
  10    7    8 2
  11    7   22 1
  12    9   10 1
  13    9   42 1
  14    9   43 1
  15   10   11 1
  16   10   44 1
  17   10   45 1
  18   11   12 1
  19   11   46 1
  20   11   47 1
  21   12   13 1
  22   12   48 1
  23   12   49 1
  24   13   14 2
  25   13   15 1
  26   14   17 1
  27   15   16 1
  28   16   17 2
  29   16   18 1
  30   18   19 am
  31   18   50 1
  32   19   20 2
  33   19   21 1
  34   21   36 1
  35   21   24 1
  36   21   51 1
  37   22   23 1
  38   22   31 1
  39   22   52 1
  40   23   26 ar
  41   23   30 ar
  42   24   32 ar
  43   24   25 ar
  44   25   35 ar
  45   25   53 1
  46   26   27 ar
  47   26   54 1
  48   27   28 ar
  49   27   55 1
  50   28   29 ar
  51   28   56 1
  52   29   30 ar
  53   29   57 1
  54   30   58 1
  55   31   37 1
  56   32   33 ar
  57   32   59 1
  58   33   34 ar
  59   33   60 1
  60   34   35 ar
  61   34   61 1
  62   35   62 1
  63   36   38 1
  64   37   39 2
  65   37   63 1
  66   38   40 2
  67   38   64 1

#	End of record

