#	Name: ASD05143317
#	Creating user name:	WinNT
#	Creation time:	15. 06. 2019 20:57

#	Modifying user name:	WinNT
#	Modification time:	15. 06. 2019 20:57

#	Program:	/corina/corina34_cracker 3.40 0067  02.08.2006

@<TRIPOS>MOLECULE
ASD05143317
  52   54    0    0    0
SMALL
NO_CHARGES


@<TRIPOS>ATOM
   1 C1             0.4063     1.2352     0.2707 C.2     
   2 N2             0.4039    -0.0308    -0.0971 N.2     
   3 S3            -1.2324    -0.4785    -0.1949 S.3     
   4 C4            -1.8317     1.0689     0.2666 C.2     
   5 N5            -0.7645     1.8101     0.4668 N.2     
   6 N6            -3.1543     1.4493     0.4026 N.pl3   
   7 C7            -3.4692     2.7214     0.8888 C.ar    
   8 C8            -4.7883     3.0504     1.1753 C.ar    
   9 C9            -5.0958     4.3078     1.6559 C.ar    
  10 C10           -4.0924     5.2394     1.8519 C.ar    
  11 C11           -2.7786     4.9153     1.5678 C.ar    
  12 C12           -2.4634     3.6574     1.0922 C.ar    
  13 C13            1.4958    -0.8224    -0.3491 C.ar    
  14 C14            2.4247    -0.4469    -1.3192 C.ar    
  15 C15            1.6862    -2.0087     0.3705 C.ar    
  16 C16            2.7907    -2.8008     0.1092 C.ar    
  17 C17            3.7027    -2.4214    -0.8593 C.ar    
  18 C18            3.5213    -1.2474    -1.5684 C.ar    
  19 C19            1.6723     1.9797     0.4620 C.ar    
  20 C20            1.7288     3.3457     0.1845 C.ar    
  21 C21            2.8094     1.3178     0.9257 C.ar    
  22 C22            3.9861     2.0141     1.1031 C.ar    
  23 C23            4.0401     3.3726     0.8208 C.ar    
  24 C24            2.9088     4.0357     0.3641 C.ar    
  25 O25            5.2012     4.0558     0.9972 O.3     
  26 C26            5.1866     5.4508     0.6876 C.3     
  27 O27            0.7900    -2.3805     1.3221 O.3     
  28 C28            1.0495    -3.6028     2.0154 C.3     
  29 C29           -5.8822     2.0363     0.9612 C.3     
  30 H30           -3.8635     0.8334     0.1606 H       
  31 H31           -6.1209     4.5642     1.8788 H       
  32 H32           -4.3357     6.2224     2.2272 H       
  33 H33           -1.9976     5.6452     1.7216 H       
  34 H34           -1.4369     3.4047     0.8708 H       
  35 H35            2.2861     0.4687    -1.8749 H       
  36 H36            2.9410    -3.7161     0.6624 H       
  37 H37            4.5633    -3.0424    -1.0596 H       
  38 H38            4.2378    -0.9586    -2.3231 H       
  39 H39            0.8494     3.8620    -0.1711 H       
  40 H40            2.7680     0.2613     1.1459 H       
  41 H41            4.8667     1.5024     1.4624 H       
  42 H42            2.9545     5.0923     0.1452 H       
  43 H43            6.1739     5.8743     0.8721 H       
  44 H44            4.9228     5.5875    -0.3611 H       
  45 H45            4.4520     5.9547     1.3157 H       
  46 H46            1.0777    -4.4264     1.3019 H       
  47 H47            2.0090    -3.5332     2.5280 H       
  48 H48            0.2598    -3.7813     2.7453 H       
  49 H49           -6.0212     1.4540     1.8721 H       
  50 H50           -6.8109     2.5505     0.7134 H       
  51 H51           -5.6059     1.3709     0.1433 H       
  52 Br52          11.1739    11.2224     7.7453 Br      
@<TRIPOS>BOND
   1    1    2 2
   2    1   19 1
   3    1    5 1
   4    2    3 1
   5    2   13 1
   6    3    4 1
   7    4    5 2
   8    4    6 1
   9    6    7 1
  10    6   30 1
  11    7    8 ar
  12    7   12 ar
  13    8    9 ar
  14    8   29 1
  15    9   10 ar
  16    9   31 1
  17   10   11 ar
  18   10   32 1
  19   11   12 ar
  20   11   33 1
  21   12   34 1
  22   13   14 ar
  23   13   15 ar
  24   14   18 ar
  25   14   35 1
  26   15   16 ar
  27   15   27 1
  28   16   17 ar
  29   16   36 1
  30   17   18 ar
  31   17   37 1
  32   18   38 1
  33   19   20 ar
  34   19   21 ar
  35   20   24 ar
  36   20   39 1
  37   21   22 ar
  38   21   40 1
  39   22   23 ar
  40   22   41 1
  41   23   24 ar
  42   23   25 1
  43   24   42 1
  44   25   26 1
  45   26   43 1
  46   26   44 1
  47   26   45 1
  48   27   28 1
  49   28   46 1
  50   28   47 1
  51   28   48 1
  52   29   49 1
  53   29   50 1
  54   29   51 1

#	End of record

