#	Name: ASD03330870
#	Creating user name:	WinNT
#	Creation time:	15. 06. 2019 20:38

#	Modifying user name:	WinNT
#	Modification time:	15. 06. 2019 20:38

#	Program:	/corina/corina34_cracker 3.40 0067  02.08.2006

@<TRIPOS>MOLECULE
ASD03330870
  60   62    0    0    0
SMALL
NO_CHARGES


@<TRIPOS>ATOM
   1 C1            -0.0199     1.2412     0.1833 C.2     
   2 C2            -0.0397    -0.2329     0.4955 C.3     
   3 N3             1.1229     1.9838     0.1135 N.pl3   
   4 N4             1.3296    -0.7520     0.3262 N.3     
   5 C5             2.3052     0.0774     1.0473 C.3     
   6 C6             2.4607     1.4305     0.3410 C.3     
   7 C7             0.7635     3.2584    -0.1902 C.2     
   8 N8            -0.5453     3.3083    -0.3012 N.2     
   9 C9            -1.0561     2.0751    -0.0800 C.2     
  10 C10           -2.4821     1.7052    -0.1167 C.2     
  11 O11           -2.8183     0.5572     0.1025 O.2     
  12 N12           -3.4136     2.6392    -0.3930 N.am    
  13 C13            1.4165    -2.1558     0.7504 C.3     
  14 C14           -5.5780     3.2369    -1.3135 C.2     
  15 C15           -4.8312     2.2716    -0.4294 C.3     
  16 C16           -5.4086     2.3254     0.9865 C.3     
  17 C17           -5.3323     3.7595     1.5142 C.3     
  18 O18           -5.1614     4.3655    -1.4667 O.2     
  19 N19           -6.7088     2.8459    -1.9339 N.am    
  20 C20           -7.4932     3.8134    -2.7051 C.3     
  21 C21           -6.8687     1.8689     0.9595 C.3     
  22 C22           -4.6023     1.4017     1.9015 C.3     
  23 C23            1.6893     4.3983    -0.3660 C.ar    
  24 C24            1.4283     5.6181     0.2640 C.ar    
  25 C25            2.2982     6.6789     0.0957 C.ar    
  26 C26            3.4240     6.5347    -0.6944 C.ar    
  27 C27            3.6875     5.3287    -1.3214 C.ar    
  28 C28            2.8299     4.2589    -1.1566 C.ar    
  29 C29            2.0190     7.9954     0.7739 C.3     
  30 F30            0.3282     5.7602     1.0353 F       
  31 Cl31           5.1034     5.1588    -2.3114 Cl      
  32 H32           -0.3681    -0.3875     1.5233 H       
  33 H33           -0.7155    -0.7455    -0.1891 H       
  34 H34            1.9589     0.2392     2.0680 H       
  35 H35            3.2683    -0.4326     1.0691 H       
  36 H36            2.9684     1.2911    -0.6134 H       
  37 H37            3.0375     2.1091     0.9694 H       
  38 H38           -3.1454     3.5549    -0.5677 H       
  39 H39            0.7369    -2.7598     0.1491 H       
  40 H40            2.4371    -2.5137     0.6150 H       
  41 H41            1.1400    -2.2355     1.8017 H       
  42 H42           -4.9345     1.2614    -0.8257 H       
  43 H43           -5.9067     4.4176     0.8622 H       
  44 H44           -5.7436     3.7979     2.5228 H       
  45 H45           -4.2921     4.0847     1.5333 H       
  46 H46           -7.0033     1.9239    -1.8697 H       
  47 H47           -8.3657     3.3173    -3.1303 H       
  48 H48           -7.8181     4.6221    -2.0504 H       
  49 H49           -6.8794     4.2207    -3.5085 H       
  50 H50           -6.9174     0.8252     0.6491 H       
  51 H51           -7.3001     1.9724     1.9552 H       
  52 H52           -7.4287     2.4840     0.2552 H       
  53 H53           -3.5621     1.7269     1.9207 H       
  54 H54           -5.0136     1.4400     2.9102 H       
  55 H55           -4.6566     0.3800     1.5256 H       
  56 H56            4.1005     7.3666    -0.8232 H       
  57 H57            3.0395     3.3176    -1.6429 H       
  58 H58            2.4876     8.0036     1.7580 H       
  59 H59            2.4251     8.8079     0.1714 H       
  60 H60            0.9425     8.1269     0.8829 H       
@<TRIPOS>BOND
   1    1    2 1
   2    1    3 1
   3    1    9 2
   4    2    4 1
   5    2   32 1
   6    2   33 1
   7    3    6 1
   8    3    7 1
   9    4    5 1
  10    4   13 1
  11    5    6 1
  12    5   34 1
  13    5   35 1
  14    6   36 1
  15    6   37 1
  16    7    8 2
  17    7   23 1
  18    8    9 1
  19    9   10 1
  20   10   11 2
  21   10   12 am
  22   12   15 1
  23   12   38 1
  24   13   39 1
  25   13   40 1
  26   13   41 1
  27   14   18 2
  28   14   19 am
  29   14   15 1
  30   15   16 1
  31   15   42 1
  32   16   17 1
  33   16   21 1
  34   16   22 1
  35   17   43 1
  36   17   44 1
  37   17   45 1
  38   19   20 1
  39   19   46 1
  40   20   47 1
  41   20   48 1
  42   20   49 1
  43   21   50 1
  44   21   51 1
  45   21   52 1
  46   22   53 1
  47   22   54 1
  48   22   55 1
  49   23   24 ar
  50   23   28 ar
  51   24   25 ar
  52   24   30 1
  53   25   26 ar
  54   25   29 1
  55   26   27 ar
  56   26   56 1
  57   27   28 ar
  58   27   31 1
  59   28   57 1
  60   29   58 1
  61   29   59 1
  62   29   60 1

#	End of record

