#	Name: ASD01812513
#	Creating user name:	WinNT
#	Creation time:	15. 06. 2019 19:28

#	Modifying user name:	WinNT
#	Modification time:	15. 06. 2019 19:28

#	Program:	/corina/corina34_cracker 3.40 0067  02.08.2006

@<TRIPOS>MOLECULE
ASD01812513
  53   58    0    0    0
SMALL
NO_CHARGES


@<TRIPOS>ATOM
   1 C1            -0.0861     1.4570     0.0067 C.ar    
   2 C2            -0.0851    -0.0031    -0.0018 C.ar    
   3 C3            -1.3269    -0.6840    -0.0131 C.ar    
   4 C4            -2.5313     0.0506    -0.0156 C.ar    
   5 C5            -2.5259     1.4047    -0.0073 C.ar    
   6 C6            -1.3230     2.1283     0.0087 C.ar    
   7 C7            -1.3364    -2.0872    -0.0213 C.ar    
   8 C8            -0.1576    -2.7718    -0.0182 C.ar    
   9 C9             1.0603    -2.0997    -0.0070 C.ar    
  10 C10            1.1060    -0.7360     0.0016 C.ar    
  11 N11            1.0523     2.1700     0.0180 N.2     
  12 C12            1.0446     3.4713     0.0259 C.2     
  13 N13           -0.0983     4.2061     0.0234 N.am    
  14 C14           -1.3062     3.5960     0.0172 C.2     
  15 C15           -3.8468    -0.6845    -0.0282 C.3     
  16 C16           -4.2334    -1.0467     1.3826 C.ar    
  17 C17           -3.8280    -2.2475     1.9308 C.ar    
  18 C18           -4.9959    -0.1745     2.1468 C.ar    
  19 C19           -5.3289    -0.5464     3.4379 C.ar    
  20 C20           -4.8913    -1.7722     3.9221 C.ar    
  21 N21           -4.1614    -2.5744     3.1648 N.ar    
  22 O22           -2.3400     4.2401     0.0190 O.2     
  23 O23           -5.2106    -2.1481     5.1861 O.3     
  24 C24           -4.7308    -3.4204     5.6253 C.3     
  25 C25           -0.0262     5.5970     0.0329 C.2     
  26 N26           -0.0736     6.4000     1.1276 N.pl3   
  27 N27            0.0310     7.7285     0.6996 N.2     
  28 C28            0.1383     7.7489    -0.6019 C.2     
  29 C29            0.1132     6.4207    -1.0712 C.2     
  30 C30            0.2138     5.9869    -2.4819 C.2     
  31 C31           -0.5918     6.3967    -3.4812 C.2     
  32 C32           -0.3006     5.8518    -4.7169 C.2     
  33 C33            0.7312     5.0052    -4.7324 C.2     
  34 S34            1.4084     4.8624    -3.1158 S.3     
  35 H35           -3.4649     1.9382    -0.0099 H       
  36 H36           -2.2742    -2.6228    -0.0296 H       
  37 H37           -0.1695    -3.8517    -0.0241 H       
  38 H38            1.9810    -2.6642    -0.0044 H       
  39 H39            2.0574    -0.2250     0.0102 H       
  40 H40            1.9910     3.9916     0.0353 H       
  41 H41           -4.6157    -0.0459    -0.4630 H       
  42 H42           -3.7498    -1.5928    -0.6230 H       
  43 H43           -3.2307    -2.9279     1.3419 H       
  44 H44           -5.3218     0.7729     1.7435 H       
  45 H45           -5.9207     0.1083     4.0605 H       
  46 H46           -5.1286    -4.2020     4.9780 H       
  47 H47           -3.6417    -3.4326     5.5824 H       
  48 H48           -5.0560    -3.5973     6.6505 H       
  49 H49           -0.1645     6.1040     2.0469 H       
  50 H50            0.2347     8.6335    -1.2140 H       
  51 H51           -1.4011     7.0953    -3.3283 H       
  52 H52           -0.8664     6.0928    -5.6047 H       
  53 H53            1.0973     4.4883    -5.6072 H       
@<TRIPOS>BOND
   1    1    2 ar
   2    1   11 1
   3    1    6 ar
   4    2   10 ar
   5    2    3 ar
   6    3    4 ar
   7    3    7 ar
   8    4    5 ar
   9    4   15 1
  10    5    6 ar
  11    5   35 1
  12    6   14 1
  13    7    8 ar
  14    7   36 1
  15    8    9 ar
  16    8   37 1
  17    9   10 ar
  18    9   38 1
  19   10   39 1
  20   11   12 2
  21   12   13 1
  22   12   40 1
  23   13   14 am
  24   13   25 1
  25   14   22 2
  26   15   16 1
  27   15   41 1
  28   15   42 1
  29   16   18 ar
  30   16   17 ar
  31   17   21 ar
  32   17   43 1
  33   18   19 ar
  34   18   44 1
  35   19   20 ar
  36   19   45 1
  37   20   21 ar
  38   20   23 1
  39   23   24 1
  40   24   46 1
  41   24   47 1
  42   24   48 1
  43   25   26 1
  44   25   29 2
  45   26   27 1
  46   26   49 1
  47   27   28 2
  48   28   29 1
  49   28   50 1
  50   29   30 1
  51   30   31 2
  52   30   34 1
  53   31   32 1
  54   31   51 1
  55   32   33 2
  56   32   52 1
  57   33   34 1
  58   33   53 1

#	End of record

