#	Name: ASD02560163
#	Creating user name:	WinNT
#	Creation time:	15. 06. 2019 20:24

#	Modifying user name:	WinNT
#	Modification time:	15. 06. 2019 20:24

#	Program:	/corina/corina34_cracker 3.40 0067  02.08.2006

@<TRIPOS>MOLECULE
ASD02560163
  55   58    0    0    0
SMALL
NO_CHARGES


@<TRIPOS>ATOM
   1 I1             1.8032     2.5480    -1.7250 I       
   2 N2             0.0680     1.3117     0.3970 N.2     
   3 N3            -0.1394     0.1053     0.2335 N.2     
   4 C4             1.4879     1.6369     0.2101 C.3     
   5 N5             2.1886     0.3301     0.2866 N.3     
   6 C6             1.1021    -0.6076    -0.0941 C.3     
   7 S7             1.2237    -2.1399     0.8690 S.3     
   8 C8             1.0617    -1.5602     2.5803 C.3     
   9 C9             1.1438    -2.7363     3.5190 C.2     
  10 O10            1.2967    -3.8554     3.0770 O.2     
  11 N11            1.0475    -2.5445     4.8495 N.am    
  12 C12            3.2399     0.2731    -0.6258 C.ar    
  13 C13            1.0548    -3.6428     5.7173 C.ar    
  14 C14            0.3810    -3.5759     6.9312 C.ar    
  15 C15            0.3901    -4.6624     7.7850 C.ar    
  16 C16            1.0685    -5.8149     7.4324 C.ar    
  17 C17            1.7394    -5.8840     6.2256 C.ar    
  18 C18            1.7300    -4.8033     5.3649 C.ar    
  19 Cl19          -0.4701    -2.1293     7.3743 Cl      
  20 S20            1.0782    -7.1980     8.5240 S.o2    
  21 O21            2.2338    -7.9581     8.1983 O.2     
  22 O22            0.8271    -6.6842     9.8249 O.2     
  23 C23            4.3068     1.1932    -0.5414 C.ar    
  24 C24            3.2503    -0.6863    -1.6161 C.ar    
  25 C25            4.2957    -0.7521    -2.5320 C.ar    
  26 C26            5.3352     0.1259    -2.4766 C.ar    
  27 C27            5.3653     1.1159    -1.4799 C.ar    
  28 C28            6.4253     2.0357    -1.3991 C.ar    
  29 C29            6.4226     2.9822    -0.4211 C.ar    
  30 C30            5.3831     3.0545     0.5040 C.ar    
  31 C31            4.3386     2.1825     0.4536 C.ar    
  32 N32           -0.2265    -8.1400     8.1334 N.am    
  33 C33            6.4552     0.0325    -3.4806 C.3     
  34 C34            7.5997    -0.7951    -2.8923 C.3     
  35 H35            1.8331     2.2997     1.0035 H       
  36 H36            1.1448    -0.8247    -1.1614 H       
  37 H37            1.8661    -0.8597     2.8043 H       
  38 H38            0.1004    -1.0618     2.7056 H       
  39 H39            0.9731    -1.6454     5.2058 H       
  40 H40           -0.1328    -4.6114     8.7286 H       
  41 H41            2.2684    -6.7854     5.9536 H       
  42 H42            2.2545    -4.8584     4.4224 H       
  43 H43            2.4380    -1.3950    -1.6814 H       
  44 H44            4.2827    -1.5121    -3.2992 H       
  45 H45            7.2378     1.9912    -2.1092 H       
  46 H46            7.2384     3.6874    -0.3610 H       
  47 H47            5.4048     3.8152     1.2704 H       
  48 H48            3.5397     2.2503     1.1772 H       
  49 H49           -0.8186    -7.8736     7.4127 H       
  50 H50           -0.3987    -8.9581     8.6252 H       
  51 H51            6.0899    -0.4467    -4.3889 H       
  52 H52            6.8153     1.0336    -3.7175 H       
  53 H53            8.4098    -0.8627    -3.6184 H       
  54 H54            7.9650    -0.3160    -1.9839 H       
  55 H55            7.2397    -1.7963    -2.6554 H       
@<TRIPOS>BOND
   1    1    4 1
   2    2    3 2
   3    2    4 1
   4    3    6 1
   5    4    5 1
   6    4   35 1
   7    5    6 1
   8    5   12 1
   9    6    7 1
  10    6   36 1
  11    7    8 1
  12    8    9 1
  13    8   37 1
  14    8   38 1
  15    9   10 2
  16    9   11 am
  17   11   13 1
  18   11   39 1
  19   12   23 ar
  20   12   24 ar
  21   13   14 ar
  22   13   18 ar
  23   14   15 ar
  24   14   19 1
  25   15   16 ar
  26   15   40 1
  27   16   17 ar
  28   16   20 1
  29   17   18 ar
  30   17   41 1
  31   18   42 1
  32   20   21 2
  33   20   22 2
  34   20   32 am
  35   23   27 ar
  36   23   31 ar
  37   24   25 ar
  38   24   43 1
  39   25   26 ar
  40   25   44 1
  41   26   27 ar
  42   26   33 1
  43   27   28 ar
  44   28   29 ar
  45   28   45 1
  46   29   30 ar
  47   29   46 1
  48   30   31 ar
  49   30   47 1
  50   31   48 1
  51   32   49 1
  52   32   50 1
  53   33   34 1
  54   33   51 1
  55   33   52 1
  56   34   53 1
  57   34   54 1
  58   34   55 1

#	End of record

