#	Name: ASD03331682
#	Creating user name:	WinNT
#	Creation time:	15. 06. 2019 20:39

#	Modifying user name:	WinNT
#	Modification time:	15. 06. 2019 20:39

#	Program:	/corina/corina34_cracker 3.40 0067  02.08.2006

@<TRIPOS>MOLECULE
ASD03331682
  48   51    0    0    0
SMALL
NO_CHARGES


@<TRIPOS>ATOM
   1 C1             2.0441     0.2572    -0.4190 C.ar    
   2 C2             1.0417    -0.4418     0.1928 C.ar    
   3 C3             0.2425     0.1651     1.1516 C.ar    
   4 C4             0.4443     1.4819     1.5036 C.ar    
   5 C5             2.2665     1.5922    -0.0773 C.ar    
   6 C6             3.2226     2.6106    -0.5186 C.2     
   7 C7             1.4588     2.2123     0.8937 C.ar    
   8 N8             1.9020     3.5095     1.0225 N.pl3   
   9 C9             2.9531     3.7284     0.1741 C.2     
  10 S10            3.8233     5.2521     0.0140 S.o2    
  11 O11            3.1835     6.1732     0.8866 O.2     
  12 O12            5.2060     4.9351     0.0967 O.2     
  13 N13            3.5619     5.8065    -1.5244 N.am    
  14 C14            2.2096     6.1760    -1.9500 C.3     
  15 C15            2.3293     7.1376    -5.5972 C.ar    
  16 C16            2.2581     6.3844    -4.4430 C.ar    
  17 C17            2.2871     7.0041    -3.2067 C.ar    
  18 C18            2.3866     8.3810    -3.1195 C.ar    
  19 C19            2.4575     9.1444    -4.2670 C.ar    
  20 C20            2.4291     8.5254    -5.5154 C.ar    
  21 C21            2.5064     9.3404    -6.7524 C.ar    
  22 C22            2.6063    10.7285    -6.6685 C.ar    
  23 C23            2.6785    11.4841    -7.8189 C.ar    
  24 C24            2.6518    10.8627    -9.0630 C.ar    
  25 C25            2.5522     9.4780    -9.1486 C.ar    
  26 C26            2.4851     8.7188    -8.0002 C.ar    
  27 C27            4.3037     2.4364    -1.5539 C.3     
  28 S28            2.7436    11.8308   -10.5323 S.3     
  29 H29            2.6649    -0.2229    -1.1610 H       
  30 H30            0.8698    -1.4746    -0.0722 H       
  31 H31           -0.5457    -0.4004     1.6263 H       
  32 H32           -0.1833     1.9454     2.2503 H       
  33 H33            1.5253     4.1699     1.6249 H       
  34 H34            4.3041     5.8867    -2.1437 H       
  35 H35            1.6307     5.2732    -2.1448 H       
  36 H36            1.7263     6.7547    -1.1628 H       
  37 H37            2.3110     6.6525    -6.5619 H       
  38 H38            2.1803     5.3090    -4.5052 H       
  39 H39            2.4085     8.8596    -2.1516 H       
  40 H40            2.5348    10.2194    -4.1978 H       
  41 H41            2.6267    11.2114    -5.7027 H       
  42 H42            2.7555    12.5594    -7.7543 H       
  43 H43            2.5316     8.9972   -10.1154 H       
  44 H44            2.4119     7.6433    -8.0670 H       
  45 H45            3.8881     2.6118    -2.5462 H       
  46 H46            5.1061     3.1495    -1.3649 H       
  47 H47            4.6988     1.4220    -1.4996 H       
  48 H48            4.0664    11.9023   -10.7653 H       
@<TRIPOS>BOND
   1    1    2 ar
   2    1    5 ar
   3    1   29 1
   4    2    3 ar
   5    2   30 1
   6    3    4 ar
   7    3   31 1
   8    4    7 ar
   9    4   32 1
  10    5    7 ar
  11    5    6 1
  12    6    9 2
  13    6   27 1
  14    7    8 1
  15    8    9 1
  16    8   33 1
  17    9   10 1
  18   10   11 2
  19   10   12 2
  20   10   13 am
  21   13   14 1
  22   13   34 1
  23   14   17 1
  24   14   35 1
  25   14   36 1
  26   15   16 ar
  27   15   20 ar
  28   15   37 1
  29   16   17 ar
  30   16   38 1
  31   17   18 ar
  32   18   19 ar
  33   18   39 1
  34   19   20 ar
  35   19   40 1
  36   20   21 1
  37   21   22 ar
  38   21   26 ar
  39   22   23 ar
  40   22   41 1
  41   23   24 ar
  42   23   42 1
  43   24   25 ar
  44   24   28 1
  45   25   26 ar
  46   25   43 1
  47   26   44 1
  48   27   45 1
  49   27   46 1
  50   27   47 1
  51   28   48 1

#	End of record

