#	Name: ASD07480010
#	Creating user name:	WinNT
#	Creation time:	15. 06. 2019 21:11

#	Modifying user name:	WinNT
#	Modification time:	15. 06. 2019 21:11

#	Program:	/corina/corina34_cracker 3.40 0067  02.08.2006

@<TRIPOS>MOLECULE
ASD07480010
  50   54    0    0    0
SMALL
NO_CHARGES


@<TRIPOS>ATOM
   1 C1            -0.4420     1.3798    -0.2126 C.2     
   2 C2            -0.2790    -0.0160    -0.1621 C.2     
   3 N3             0.9138    -0.5542    -0.2764 N.2     
   4 N4             2.0435     0.2509    -0.4504 N.pl3   
   5 C5             1.9186     1.6084    -0.5036 C.2     
   6 C6             0.6407     2.1863    -0.3811 C.2     
   7 C7             3.3821    -0.0373    -0.5945 C.2     
   8 C8             4.0341     1.1800    -0.7327 C.2     
   9 N9             3.1277     2.1412    -0.6735 N.2     
  10 N10           -1.3911    -0.8343     0.0110 N.pl3   
  11 C11           -1.3862    -2.3042    -0.0181 C.3     
  12 C12           -2.7683    -0.3710     0.2604 C.3     
  13 C13           -3.6715    -1.5295    -0.2313 C.3     
  14 C14           -2.8417    -2.7716     0.1934 C.3     
  15 C15           -0.5113    -2.8359     1.0878 C.ar    
  16 C16           -0.0016    -4.1221     1.0219 C.ar    
  17 N17            0.7659    -4.5945     1.9868 N.ar    
  18 C18            1.0766    -3.8690     3.0437 C.ar    
  19 C19            0.6035    -2.5757     3.1782 C.ar    
  20 C20           -0.2021    -2.0423     2.1804 C.ar    
  21 F21           -0.2935    -4.9023    -0.0417 F       
  22 F22            0.9253    -1.8391     4.2641 F       
  23 C23            3.9957    -1.3641    -0.6000 C.2     
  24 N24            5.3144    -1.4957    -0.8457 N.am    
  25 O25            3.3155    -2.3503    -0.3827 O.2     
  26 C26            6.2500    -2.6146    -1.0337 C.3     
  27 C27            6.4496    -0.5834    -1.0501 C.3     
  28 C28            7.3667    -1.6967    -0.5176 C.3     
  29 O29            7.5226    -1.6980     0.9029 O.3     
  30 C30            8.6891    -1.8357    -1.2744 C.3     
  31 H31           -1.4277     1.8117    -0.1220 H       
  32 H32            0.5211     3.2589    -0.4209 H       
  33 H33            5.0969     1.3183    -0.8655 H       
  34 H34           -1.0183    -2.6546    -0.9825 H       
  35 H35           -2.9225    -0.1953     1.3250 H       
  36 H36           -2.9720     0.5364    -0.3081 H       
  37 H37           -4.6367    -1.5142     0.2748 H       
  38 H38           -3.7988    -1.4935    -1.3132 H       
  39 H39           -3.0699    -3.6247    -0.4456 H       
  40 H40           -3.0196    -3.0145     1.2409 H       
  41 H41            1.7072    -4.2894     3.8131 H       
  42 H42           -0.5854    -1.0356     2.2585 H       
  43 H43            6.0488    -3.4632    -0.3799 H       
  44 H44            6.3746    -2.9056    -2.0767 H       
  45 H45            6.6269    -0.3389    -2.0975 H       
  46 H46            6.4184     0.2985    -0.4103 H       
  47 H47            8.0999    -2.3993     1.2346 H       
  48 H48            9.2859    -0.9349    -1.1317 H       
  49 H49            9.2365    -2.6982    -0.8941 H       
  50 H50            8.4871    -1.9733    -2.3367 H       
@<TRIPOS>BOND
   1    1    2 1
   2    1    6 2
   3    1   31 1
   4    2    3 2
   5    2   10 1
   6    3    4 1
   7    4    5 1
   8    4    7 1
   9    5    6 1
  10    5    9 2
  11    6   32 1
  12    7    8 2
  13    7   23 1
  14    8    9 1
  15    8   33 1
  16   10   11 1
  17   10   12 1
  18   11   15 1
  19   11   14 1
  20   11   34 1
  21   12   13 1
  22   12   35 1
  23   12   36 1
  24   13   14 1
  25   13   37 1
  26   13   38 1
  27   14   39 1
  28   14   40 1
  29   15   16 ar
  30   15   20 ar
  31   16   17 ar
  32   16   21 1
  33   17   18 ar
  34   18   19 ar
  35   18   41 1
  36   19   20 ar
  37   19   22 1
  38   20   42 1
  39   23   24 am
  40   23   25 2
  41   24   26 1
  42   24   27 1
  43   26   28 1
  44   26   43 1
  45   26   44 1
  46   27   28 1
  47   27   45 1
  48   27   46 1
  49   28   29 1
  50   28   30 1
  51   29   47 1
  52   30   48 1
  53   30   49 1
  54   30   50 1

#	End of record

