#	Name: ASD00069280
#	Creating user name:	WinNT
#	Creation time:	15. 06. 2019 18:29

#	Modifying user name:	WinNT
#	Modification time:	15. 06. 2019 18:29

#	Program:	/corina/corina34_cracker 3.40 0067  02.08.2006

@<TRIPOS>MOLECULE
ASD00069280
  84   87    0    0    0
SMALL
NO_CHARGES


@<TRIPOS>ATOM
   1 C1             3.9271     1.3004    -0.0389 C.2     
   2 N2             3.4349     0.3274     0.7533 N.am    
   3 O3             3.6306     1.3329    -1.2169 O.2     
   4 O4             4.7429     2.2395     0.4761 O.3     
   5 N5             1.7111    -2.9753     0.4959 N.3     
   6 C6             2.6213    -1.9614     1.0437 C.3     
   7 C7             2.5424    -0.6910     0.1942 C.3     
   8 C8             1.1033    -0.1679     0.1992 C.3     
   9 C9             0.1699    -1.2600    -0.3305 C.3     
  10 C10            0.3175    -2.5140     0.5343 C.3     
  11 C11            1.8547    -4.1952     1.1693 C.ar    
  12 C12            2.3225    -5.3187     0.4890 C.ar    
  13 C13            2.4626    -6.5239     1.1616 C.ar    
  14 C14            2.1384    -6.6096     2.5026 C.ar    
  15 C15            1.6739    -5.4965     3.1787 C.ar    
  16 C16            1.5371    -4.2879     2.5179 C.ar    
  17 F17            1.0887    -3.2008     3.1830 F       
  18 C18            3.4398    -6.1654    -1.4345 C.2     
  19 O19            3.9500    -7.0278    -0.7449 O.2     
  20 N20            2.6498    -5.2308    -0.8698 N.am    
  21 C21            3.6856    -6.1424    -2.8871 C.2     
  22 N22            3.1939    -5.2653    -3.7360 N.2     
  23 C23            3.6305    -5.5565    -4.9664 C.2     
  24 C24            4.4284    -6.6621    -4.8820 C.2     
  25 N25            4.4672    -7.0250    -3.5785 N.pl3   
  26 C26            5.2074    -8.1562    -3.0138 C.3     
  27 O27            5.9038    -8.8388    -4.0584 O.3     
  28 C28            6.6617    -9.9650    -3.6122 C.3     
  29 C29            7.3611   -10.6151    -4.8077 C.3     
  30 Si30           8.3493   -12.0834    -4.2260 Si      
  31 C31            7.2099   -13.3207    -3.4250 C.3     
  32 C32            9.2008   -12.8750    -5.6817 C.3     
  33 C33            9.6252   -11.5229    -2.9897 C.3     
  34 N34            2.5167    -3.3020    -7.5878 N.pl3   
  35 N35            3.2059    -4.2639    -8.3362 N.2     
  36 C36            3.6784    -5.1664    -7.5173 C.2     
  37 C37            3.3040    -4.8086    -6.2081 C.2     
  38 C38            2.5869    -3.6514    -6.2864 C.2     
  39 C39            5.2353     3.2568    -0.4355 C.3     
  40 C40            4.0527     4.0221    -1.0326 C.3     
  41 C41            6.1400     4.2284     0.3250 C.3     
  42 C42            6.0322     2.5916    -1.5596 C.3     
  43 H43            3.6716     0.3015     1.6936 H       
  44 H44            2.3332    -1.7310     2.0694 H       
  45 H45            3.6417    -2.3444     1.0305 H       
  46 H46            2.8436    -0.9178    -0.8286 H       
  47 H47            0.8151     0.0956     1.2168 H       
  48 H48            1.0335     0.7124    -0.4398 H       
  49 H49           -0.8612    -0.9089    -0.2893 H       
  50 H50            0.4337    -1.4958    -1.3614 H       
  51 H51           -0.3354    -3.2983     0.1511 H       
  52 H52            0.0402    -2.2809     1.5623 H       
  53 H53            2.8247    -7.3957     0.6370 H       
  54 H54            2.2480    -7.5491     3.0239 H       
  55 H55            1.4214    -5.5692     4.2263 H       
  56 H56            2.3078    -4.4974    -1.4046 H       
  57 H57            4.9362    -7.1514    -5.7001 H       
  58 H58            5.9237    -7.7907    -2.2781 H       
  59 H59            4.5106    -8.8426    -2.5327 H       
  60 H60            7.4083    -9.6371    -2.8889 H       
  61 H61            5.9952   -10.6890    -3.1435 H       
  62 H62            6.6146   -10.9431    -5.5311 H       
  63 H63            8.0277    -9.8912    -5.2764 H       
  64 H64            6.4634   -13.6487    -4.1483 H       
  65 H65            7.7881   -14.1798    -3.0846 H       
  66 H66            6.7117   -12.8576    -2.5733 H       
  67 H67            9.8674   -12.1510    -6.1504 H       
  68 H68            9.7790   -13.7340    -5.3414 H       
  69 H69            8.4543   -13.2029    -6.4051 H       
  70 H70            9.1270   -11.0597    -2.1380 H       
  71 H71           10.2033   -12.3819    -2.6493 H       
  72 H72           10.2918   -10.7989    -3.4584 H       
  73 H73            2.0697    -2.5178    -7.9430 H       
  74 H74            4.2554    -6.0357    -7.7964 H       
  75 H75            2.1536    -3.1122    -5.4570 H       
  76 H76            3.4850     4.4960    -0.2318 H       
  77 H77            4.4223     4.7858    -1.7169 H       
  78 H78            3.4082     3.3299    -1.5744 H       
  79 H79            6.9825     3.6831     0.7504 H       
  80 H80            6.5096     4.9920    -0.3593 H       
  81 H81            5.5723     4.7022     1.1258 H       
  82 H82            5.3877     1.8994    -2.1014 H       
  83 H83            6.4018     3.3553    -2.2439 H       
  84 H84            6.8747     2.0464    -1.1343 H       
@<TRIPOS>BOND
   1    1    2 am
   2    1    3 2
   3    1    4 1
   4    2    7 1
   5    2   43 1
   6    4   39 1
   7    5    6 1
   8    5   10 1
   9    5   11 1
  10    6    7 1
  11    6   44 1
  12    6   45 1
  13    7    8 1
  14    7   46 1
  15    8    9 1
  16    8   47 1
  17    8   48 1
  18    9   10 1
  19    9   49 1
  20    9   50 1
  21   10   51 1
  22   10   52 1
  23   11   12 ar
  24   11   16 ar
  25   12   13 ar
  26   12   20 1
  27   13   14 ar
  28   13   53 1
  29   14   15 ar
  30   14   54 1
  31   15   16 ar
  32   15   55 1
  33   16   17 1
  34   18   19 2
  35   18   20 am
  36   18   21 1
  37   20   56 1
  38   21   22 2
  39   21   25 1
  40   22   23 1
  41   23   24 2
  42   23   37 1
  43   24   25 1
  44   24   57 1
  45   25   26 1
  46   26   27 1
  47   26   58 1
  48   26   59 1
  49   27   28 1
  50   28   29 1
  51   28   60 1
  52   28   61 1
  53   29   30 1
  54   29   62 1
  55   29   63 1
  56   30   31 1
  57   30   32 1
  58   30   33 1
  59   31   64 1
  60   31   65 1
  61   31   66 1
  62   32   67 1
  63   32   68 1
  64   32   69 1
  65   33   70 1
  66   33   71 1
  67   33   72 1
  68   34   35 1
  69   34   38 1
  70   34   73 1
  71   35   36 2
  72   36   37 1
  73   36   74 1
  74   37   38 2
  75   38   75 1
  76   39   40 1
  77   39   42 1
  78   39   41 1
  79   40   76 1
  80   40   77 1
  81   40   78 1
  82   41   79 1
  83   41   80 1
  84   41   81 1
  85   42   82 1
  86   42   83 1
  87   42   84 1

#	End of record

