#	Name: ASD01914499
#	Creating user name:	WinNT
#	Creation time:	15. 06. 2019 20:03

#	Modifying user name:	WinNT
#	Modification time:	15. 06. 2019 20:03

#	Program:	/corina/corina34_cracker 3.40 0067  02.08.2006

@<TRIPOS>MOLECULE
ASD01914499
  51   55    0    0    0
SMALL
NO_CHARGES


@<TRIPOS>ATOM
   1 C1            -0.0159     1.3204     0.0093 C.ar    
   2 N2             0.0021    -0.0041     0.0020 N.ar    
   3 C3             1.1462    -0.6644    -0.0125 C.ar    
   4 C4             2.3379     0.0473    -0.0201 C.ar    
   5 C5             2.2813     1.4341    -0.0121 C.ar    
   6 N6             1.1024     2.0303     0.0024 N.ar    
   7 C7            -1.3224     2.0270     0.0193 C.2     
   8 O8            -2.3570     1.3907     0.0207 O.2     
   9 N9            -1.3598     3.3743     0.0268 N.am    
  10 C10           -2.6483     4.0712     0.0366 C.3     
  11 C11           -2.4106     5.5826     0.0437 C.3     
  12 C12           -3.7564     6.3105     0.0540 C.3     
  13 C13           -4.5422     5.9119     1.3048 C.3     
  14 C14           -4.7799     4.4005     1.2977 C.3     
  15 C15           -5.5775     4.0155     0.0501 C.3     
  16 C16           -4.7917     4.4141    -1.2007 C.3     
  17 C17           -3.4459     3.6862    -1.2110 C.3     
  18 C18           -4.5539     5.9255    -1.1936 C.3     
  19 C19           -3.4342     3.6726     1.2874 C.3     
  20 N20           -3.5288     7.7577     0.0608 N.am    
  21 C21           -4.5771     8.6047     0.0703 C.2     
  22 O22           -5.7112     8.1679     0.0733 O.2     
  23 C23           -4.3471    10.0672     0.0772 C.ar    
  24 C24           -5.4359    10.9373     0.0871 C.ar    
  25 C25           -5.2065    12.3028     0.0939 C.ar    
  26 C26           -3.8926    12.7535     0.0906 C.ar    
  27 C27           -2.8568    11.8284     0.0807 C.ar    
  28 N28           -3.1057    10.5376     0.0795 N.ar    
  29 F29           -3.6252    14.0777     0.0966 F       
  30 H30            1.1543    -1.7443    -0.0180 H       
  31 H31            3.2878    -0.4665    -0.0316 H       
  32 H32            3.1895     2.0185    -0.0173 H       
  33 H33           -0.5335     3.8824     0.0257 H       
  34 H34           -1.8424     5.8569     0.9326 H       
  35 H35           -1.8508     5.8665    -0.8474 H       
  36 H36           -3.9740     6.1862     2.1936 H       
  37 H37           -5.5009     6.4305     1.3121 H       
  38 H38           -5.3398     4.1166     2.1888 H       
  39 H39           -5.7468     2.9388     0.0450 H       
  40 H40           -6.5362     4.5341     0.0574 H       
  41 H41           -5.3599     4.1398    -2.0895 H       
  42 H42           -2.8861     3.9702    -2.1021 H       
  43 H43           -3.6153     2.6095    -1.2160 H       
  44 H44           -5.5127     6.4441    -1.1863 H       
  45 H45           -3.9941     6.2094    -2.0847 H       
  46 H46           -3.6035     2.5959     1.2824 H       
  47 H47           -2.8660     3.9469     2.1763 H       
  48 H48           -2.6236     8.1063     0.0585 H       
  49 H49           -6.4447    10.5517     0.0890 H       
  50 H50           -6.0301    13.0013     0.1012 H       
  51 H51           -1.8336    12.1740     0.0777 H       
@<TRIPOS>BOND
   1    1    2 ar
   2    1    6 ar
   3    1    7 1
   4    2    3 ar
   5    3    4 ar
   6    3   30 1
   7    4    5 ar
   8    4   31 1
   9    5    6 ar
  10    5   32 1
  11    7    8 2
  12    7    9 am
  13    9   10 1
  14    9   33 1
  15   10   11 1
  16   10   17 1
  17   10   19 1
  18   11   12 1
  19   11   34 1
  20   11   35 1
  21   12   13 1
  22   12   18 1
  23   12   20 1
  24   13   14 1
  25   13   36 1
  26   13   37 1
  27   14   15 1
  28   14   19 1
  29   14   38 1
  30   15   16 1
  31   15   39 1
  32   15   40 1
  33   16   17 1
  34   16   18 1
  35   16   41 1
  36   17   42 1
  37   17   43 1
  38   18   44 1
  39   18   45 1
  40   19   46 1
  41   19   47 1
  42   20   21 am
  43   20   48 1
  44   21   22 2
  45   21   23 1
  46   23   24 ar
  47   23   28 ar
  48   24   25 ar
  49   24   49 1
  50   25   26 ar
  51   25   50 1
  52   26   27 ar
  53   26   29 1
  54   27   28 ar
  55   27   51 1

#	End of record

