#	Name: ASD01912936
#	Creating user name:	WinNT
#	Creation time:	15. 06. 2019 20:00

#	Modifying user name:	WinNT
#	Modification time:	15. 06. 2019 20:00

#	Program:	/corina/corina34_cracker 3.40 0067  02.08.2006

@<TRIPOS>MOLECULE
ASD01912936
  58   62    0    0    0
SMALL
NO_CHARGES


@<TRIPOS>ATOM
   1 C1            -0.0236     1.4428     0.4106 C.ar    
   2 C2            -0.0004    -0.0185     0.1778 C.2     
   3 N3            -1.0869    -0.8248     0.0080 N.pl3   
   4 C4             1.1120    -0.8030     0.0882 C.2     
   5 C5             0.6886    -2.1237    -0.1365 C.2     
   6 N6            -0.6272    -2.1338    -0.1840 N.2     
   7 C7             1.5733    -3.3048    -0.2968 C.ar    
   8 C8             1.0231    -4.5658    -0.5160 C.ar    
   9 C9             2.9570    -3.1554    -0.2343 C.ar    
  10 C10            3.7750    -4.2569    -0.3840 C.ar    
  11 C11            3.2233    -5.5075    -0.5957 C.ar    
  12 C12            1.8503    -5.6606    -0.6643 C.ar    
  13 C13           -2.4881    -0.3973     0.0237 C.3     
  14 C14           -2.9459    -0.1247    -1.3860 C.2     
  15 N15           -4.2093     0.2839    -1.6171 N.am    
  16 O16           -2.1774    -0.2729    -2.3125 O.2     
  17 C17           -4.6765     0.5555    -2.9850 C.3     
  18 C18           -5.9831    -0.2117    -3.2144 C.3     
  19 N19           -6.9395     0.1278    -2.1524 N.3     
  20 C20           -6.4449    -0.2939    -0.8350 C.3     
  21 C21           -5.1591     0.4641    -0.5087 C.3     
  22 C22           -8.1861    -0.4189    -2.4132 C.ar    
  23 C23           -9.2306    -0.2061    -1.5162 C.ar    
  24 C24            1.0610     2.0719     1.0221 C.ar    
  25 C25            1.0333     3.4347     1.2364 C.ar    
  26 C26           -0.0670     4.1770     0.8462 C.ar    
  27 C27           -1.1458     3.5589     0.2397 C.ar    
  28 C28           -1.1276     2.1977     0.0142 C.ar    
  29 N29           -8.3690    -1.1325    -3.5156 N.ar    
  30 C30           -9.5356    -1.6708    -3.8044 C.ar    
  31 C31          -10.6253    -1.5027    -2.9479 C.ar    
  32 C32          -10.4609    -0.7476    -1.7767 C.ar    
  33 N33          -12.9001    -2.5522    -3.5126 N.1     
  34 C34          -11.8938    -2.0880    -3.2628 C.1     
  35 H35            2.1353    -0.4685     0.1739 H       
  36 H36           -0.0489    -4.6864    -0.5694 H       
  37 H37            3.3888    -2.1793    -0.0694 H       
  38 H38            4.8478    -4.1422    -0.3361 H       
  39 H39            3.8670    -6.3668    -0.7127 H       
  40 H40            1.4247    -6.6394    -0.8294 H       
  41 H41           -3.1033    -1.1844     0.4597 H       
  42 H42           -2.5843     0.5107     0.6189 H       
  43 H43           -4.8534     1.6242    -3.1061 H       
  44 H44           -3.9256     0.2222    -3.7014 H       
  45 H45           -6.4015     0.0638    -4.1824 H       
  46 H46           -5.7839    -1.2832    -3.1955 H       
  47 H47           -7.1982    -0.0779    -0.0774 H       
  48 H48           -6.2392    -1.3642    -0.8493 H       
  49 H49           -4.7274     0.0731     0.4127 H       
  50 H50           -5.3792     1.5252    -0.3918 H       
  51 H51           -9.0712     0.3803    -0.6233 H       
  52 H52            1.9203     1.4934     1.3275 H       
  53 H53            1.8722     3.9228     1.7101 H       
  54 H54           -0.0839     5.2434     1.0161 H       
  55 H55           -2.0022     4.1437    -0.0621 H       
  56 H56           -1.9702     1.7164    -0.4598 H       
  57 H57           -9.6504    -2.2465    -4.7110 H       
  58 H58          -11.2850    -0.5999    -1.0946 H       
@<TRIPOS>BOND
   1    1    2 1
   2    1   24 ar
   3    1   28 ar
   4    2    3 1
   5    2    4 2
   6    3   13 1
   7    3    6 1
   8    4    5 1
   9    4   35 1
  10    5    6 2
  11    5    7 1
  12    7    8 ar
  13    7    9 ar
  14    8   12 ar
  15    8   36 1
  16    9   10 ar
  17    9   37 1
  18   10   11 ar
  19   10   38 1
  20   11   12 ar
  21   11   39 1
  22   12   40 1
  23   13   14 1
  24   13   41 1
  25   13   42 1
  26   14   15 am
  27   14   16 2
  28   15   17 1
  29   15   21 1
  30   17   18 1
  31   17   43 1
  32   17   44 1
  33   18   19 1
  34   18   45 1
  35   18   46 1
  36   19   20 1
  37   19   22 1
  38   20   21 1
  39   20   47 1
  40   20   48 1
  41   21   49 1
  42   21   50 1
  43   22   23 ar
  44   22   29 ar
  45   23   32 ar
  46   23   51 1
  47   24   25 ar
  48   24   52 1
  49   25   26 ar
  50   25   53 1
  51   26   27 ar
  52   26   54 1
  53   27   28 ar
  54   27   55 1
  55   28   56 1
  56   29   30 ar
  57   30   31 ar
  58   30   57 1
  59   31   32 ar
  60   31   34 1
  61   32   58 1
  62   33   34 3

#	End of record

