#	Name: ASD01811454
#	Creating user name:	WinNT
#	Creation time:	15. 06. 2019 19:26

#	Modifying user name:	WinNT
#	Modification time:	15. 06. 2019 19:26

#	Program:	/corina/corina34_cracker 3.40 0067  02.08.2006

@<TRIPOS>MOLECULE
ASD01811454
  67   71    0    0    0
SMALL
NO_CHARGES


@<TRIPOS>ATOM
   1 C1            -8.0251     2.1670     2.3310 C.1     
   2 C2            -6.8583     2.9688     2.1155 C.ar    
   3 C3            -5.6083     2.5174     2.5438 C.ar    
   4 C4            -4.4884     3.2949     2.3330 C.ar    
   5 C5            -4.6020     4.5196     1.6992 C.ar    
   6 C6            -5.8376     4.9732     1.2727 C.ar    
   7 C7            -6.9647     4.2029     1.4711 C.ar    
   8 N8            -8.9506     1.5309     2.5020 N.1     
   9 N9            -1.9285     7.7947     1.4833 N.am    
  10 C10           -2.4294     7.2920     0.1968 C.3     
  11 C11           -3.6890     6.4577     0.4502 C.3     
  12 C12           -3.3742     5.3636     1.4729 C.3     
  13 C13           -2.9465     6.0062     2.7944 C.3     
  14 C14           -1.6785     6.8354     2.5677 C.3     
  15 F15           -2.3375     4.5581     0.9896 F       
  16 C16           -1.6973     9.1102     1.6634 C.2     
  17 C17           -1.2832     9.6131     2.9908 C.ar    
  18 C18           -2.0168    10.6236     3.6167 C.ar    
  19 C19           -1.6313    11.0941     4.8559 C.ar    
  20 C20           -0.5189    10.5703     5.4848 C.ar    
  21 C21            0.2233     9.5600     4.8704 C.ar    
  22 C22           -0.1636     9.0762     3.6227 C.ar    
  23 O23           -1.8293     9.8833     0.7348 O.2     
  24 C24            1.4149     9.0005     5.5454 C.2     
  25 N25            2.2232     8.0133     5.0530 N.pl3   
  26 C26            3.1930     7.8009     5.9802 C.2     
  27 C27            2.9593     8.6516     7.0097 C.2     
  28 N28            1.8808     9.3728     6.7205 N.2     
  29 C29            4.3452     6.8302     5.9527 C.3     
  30 C30            3.8354     8.7032     8.2385 C.3     
  31 C31            4.6880     7.4263     8.2589 C.3     
  32 O32            5.2764     7.2193     6.9720 O.3     
  33 C33           -0.1049    11.0908     6.8371 C.3     
  34 C34            0.9572    12.1780     6.6619 C.3     
  35 C35           -3.2315    11.2018     2.9375 C.3     
  36 C36           -4.4236    10.2644     3.1399 C.3     
  37 H37           -5.5184     1.5619     3.0392 H       
  38 H38           -3.5210     2.9470     2.6637 H       
  39 H39           -5.9191     5.9303     0.7791 H       
  40 H40           -7.9279     4.5559     1.1334 H       
  41 H41           -2.6722     8.1318    -0.4542 H       
  42 H42           -1.6679     6.6703    -0.2741 H       
  43 H43           -4.4796     7.1007     0.8370 H       
  44 H44           -4.0159     5.9998    -0.4834 H       
  45 H45           -3.7441     6.6535     3.1592 H       
  46 H46           -2.7450     5.2269     3.5294 H       
  47 H47           -0.8558     6.1764     2.2901 H       
  48 H48           -1.4259     7.3739     3.4810 H       
  49 H49           -2.2019    11.8756     5.3356 H       
  50 H50            0.4043     8.2913     3.1453 H       
  51 H51            2.1229     7.5530     4.2051 H       
  52 H52            3.9822     5.8217     6.1506 H       
  53 H53            4.8313     6.8629     4.9776 H       
  54 H54            4.4829     9.5790     8.1939 H       
  55 H55            3.2145     8.7471     9.1332 H       
  56 H56            5.4755     7.5279     9.0057 H       
  57 H57            4.0579     6.5734     8.5110 H       
  58 H58           -0.9728    11.5096     7.3465 H       
  59 H59            0.3057    10.2740     7.4307 H       
  60 H60            0.5466    12.9948     6.0683 H       
  61 H61            1.2566    12.5545     7.6400 H       
  62 H62            1.8252    11.7593     6.1525 H       
  63 H63           -3.4589    12.1770     3.3681 H       
  64 H64           -3.0334    11.3126     1.8714 H       
  65 H65           -5.3022    10.6826     2.6486 H       
  66 H66           -4.1962     9.2892     2.7093 H       
  67 H67           -4.6218    10.1536     4.2060 H       
@<TRIPOS>BOND
   1    1    2 1
   2    1    8 3
   3    2    3 ar
   4    2    7 ar
   5    3    4 ar
   6    3   37 1
   7    4    5 ar
   8    4   38 1
   9    5    6 ar
  10    5   12 1
  11    6    7 ar
  12    6   39 1
  13    7   40 1
  14    9   10 1
  15    9   14 1
  16    9   16 am
  17   10   11 1
  18   10   41 1
  19   10   42 1
  20   11   12 1
  21   11   43 1
  22   11   44 1
  23   12   13 1
  24   12   15 1
  25   13   14 1
  26   13   45 1
  27   13   46 1
  28   14   47 1
  29   14   48 1
  30   16   17 1
  31   16   23 2
  32   17   18 ar
  33   17   22 ar
  34   18   19 ar
  35   18   35 1
  36   19   20 ar
  37   19   49 1
  38   20   21 ar
  39   20   33 1
  40   21   22 ar
  41   21   24 1
  42   22   50 1
  43   24   25 1
  44   24   28 2
  45   25   26 1
  46   25   51 1
  47   26   27 2
  48   26   29 1
  49   27   28 1
  50   27   30 1
  51   29   32 1
  52   29   52 1
  53   29   53 1
  54   30   31 1
  55   30   54 1
  56   30   55 1
  57   31   32 1
  58   31   56 1
  59   31   57 1
  60   33   34 1
  61   33   58 1
  62   33   59 1
  63   34   60 1
  64   34   61 1
  65   34   62 1
  66   35   36 1
  67   35   63 1
  68   35   64 1
  69   36   65 1
  70   36   66 1
  71   36   67 1

#	End of record

