#	Name: ASD04880170
#	Creating user name:	WinNT
#	Creation time:	15. 06. 2019 20:52

#	Modifying user name:	WinNT
#	Modification time:	15. 06. 2019 20:52

#	Program:	/corina/corina34_cracker 3.40 0067  02.08.2006

@<TRIPOS>MOLECULE
ASD04880170
  63   66    0    0    0
SMALL
NO_CHARGES


@<TRIPOS>ATOM
   1 C1            -0.1485     1.4416    -0.0756 C.3     
   2 O2             0.6647     0.3060     0.2263 O.3     
   3 C3             1.2837    -0.3040    -0.8172 C.ar    
   4 C4             1.1150     0.1859    -2.1048 C.ar    
   5 C5             1.7407    -0.4299    -3.1673 C.ar    
   6 C6             2.5472    -1.5493    -2.9496 C.ar    
   7 C7             2.7176    -2.0426    -1.6528 C.ar    
   8 C8             2.0920    -1.4178    -0.5920 C.ar    
   9 O9             2.2601    -1.8917     0.6716 O.3     
  10 C10            3.1016    -3.0359     0.8287 C.3     
  11 C11            3.2175    -2.2102    -4.0862 C.2     
  12 O12            3.9192    -3.1847    -3.8952 O.2     
  13 N13            3.0518    -1.7336    -5.3360 N.am    
  14 C14            3.7610    -2.2999    -6.4000 C.ar    
  15 C15            4.0114    -3.6659    -6.4209 C.ar    
  16 C16            4.7116    -4.2220    -7.4734 C.ar    
  17 C17            5.1634    -3.4204    -8.5056 C.ar    
  18 C18            4.9162    -2.0599    -8.4877 C.ar    
  19 C19            4.2116    -1.4984    -7.4410 C.ar    
  20 C20            5.9272    -4.0307    -9.6525 C.3     
  21 C21            7.1959    -4.7007    -9.1211 C.3     
  22 C22            5.0526    -5.0748   -10.3495 C.3     
  23 C23            6.3085    -2.9361   -10.6511 C.3     
  24 N24            7.0510    -3.5294   -11.7660 N.am    
  25 C25            7.4920    -2.7494   -12.7729 C.2     
  26 O26            7.1956    -1.5687   -12.8031 O.2     
  27 C27            8.3011    -3.3038   -13.7969 C.2     
  28 C28            8.6386    -4.6381   -13.9569 C.2     
  29 N29            9.4054    -4.7447   -15.0297 N.2     
  30 C30            9.5846    -3.5435   -15.5779 C.2     
  31 C31           10.3055    -3.1293   -16.7123 C.2     
  32 C32           10.3187    -1.8097   -17.0522 C.2     
  33 C33            9.6141    -0.8846   -16.2669 C.2     
  34 F34            9.6219     0.4253   -16.5974 F       
  35 C35            8.9258    -1.3036   -15.1781 C.2     
  36 N36            8.9042    -2.6204   -14.8368 N.pl3   
  37 H37            0.4634     2.2123    -0.5444 H       
  38 H38           -0.9461     1.1464    -0.7573 H       
  39 H39           -0.5830     1.8323     0.8445 H       
  40 H40            0.4917     1.0514    -2.2746 H       
  41 H41            1.6072    -0.0470    -4.1683 H       
  42 H42            3.3403    -2.9080    -1.4804 H       
  43 H43            2.6936    -3.8685     0.2555 H       
  44 H44            4.1033    -2.8026     0.4678 H       
  45 H45            3.1497    -3.3095     1.8827 H       
  46 H46            2.4406    -0.9979    -5.4974 H       
  47 H47            3.6591    -4.2924    -5.6148 H       
  48 H48            4.9070    -5.2841    -7.4900 H       
  49 H49            5.2710    -1.4365    -9.2950 H       
  50 H50            4.0147    -0.4365    -7.4299 H       
  51 H51            6.9242    -5.4806    -8.4097 H       
  52 H52            7.7483    -5.1422    -9.9506 H       
  53 H53            7.8189    -3.9569    -8.6246 H       
  54 H54            4.1488    -4.5974   -10.7280 H       
  55 H55            5.6050    -5.5162   -11.1790 H       
  56 H56            4.7809    -5.8546    -9.6380 H       
  57 H57            5.4047    -2.4587   -11.0297 H       
  58 H58            6.9316    -2.1922   -10.1546 H       
  59 H59            7.2253    -4.4835   -11.7795 H       
  60 H60            8.3297    -5.4506   -13.3160 H       
  61 H61           10.8442    -3.8508   -17.3087 H       
  62 H62           10.8685    -1.4779   -17.9205 H       
  63 H63            8.3859    -0.5864   -14.5778 H       
@<TRIPOS>BOND
   1    1    2 1
   2    1   37 1
   3    1   38 1
   4    1   39 1
   5    2    3 1
   6    3    8 ar
   7    3    4 ar
   8    4    5 ar
   9    4   40 1
  10    5    6 ar
  11    5   41 1
  12    6    7 ar
  13    6   11 1
  14    7    8 ar
  15    7   42 1
  16    8    9 1
  17    9   10 1
  18   10   43 1
  19   10   44 1
  20   10   45 1
  21   11   12 2
  22   11   13 am
  23   13   14 1
  24   13   46 1
  25   14   19 ar
  26   14   15 ar
  27   15   16 ar
  28   15   47 1
  29   16   17 ar
  30   16   48 1
  31   17   18 ar
  32   17   20 1
  33   18   19 ar
  34   18   49 1
  35   19   50 1
  36   20   21 1
  37   20   22 1
  38   20   23 1
  39   21   51 1
  40   21   52 1
  41   21   53 1
  42   22   54 1
  43   22   55 1
  44   22   56 1
  45   23   24 1
  46   23   57 1
  47   23   58 1
  48   24   25 am
  49   24   59 1
  50   25   26 2
  51   25   27 1
  52   27   36 1
  53   27   28 2
  54   28   29 1
  55   28   60 1
  56   29   30 2
  57   30   36 1
  58   30   31 1
  59   31   32 2
  60   31   61 1
  61   32   33 1
  62   32   62 1
  63   33   34 1
  64   33   35 2
  65   35   36 1
  66   35   63 1

#	End of record

