#	Name: ASD01911046
#	Creating user name:	WinNT
#	Creation time:	15. 06. 2019 19:57

#	Modifying user name:	WinNT
#	Modification time:	15. 06. 2019 19:57

#	Program:	/corina/corina34_cracker 3.40 0067  02.08.2006

@<TRIPOS>MOLECULE
ASD01911046
  51   54    0    0    0
SMALL
NO_CHARGES


@<TRIPOS>ATOM
   1 N1             0.2559     1.0802    -0.0596 N.3     
   2 C2             0.0698    -0.3425     0.2555 C.3     
   3 C3            -1.4259    -0.6356     0.4146 C.3     
   4 N4            -2.1244    -0.1695    -0.7929 N.am    
   5 C5            -1.8802     1.2068    -1.2505 C.3     
   6 C6            -0.3667     1.4273    -1.3441 C.3     
   7 C7            -2.9656    -0.9822    -1.4626 C.2     
   8 C8            -3.7563    -0.4560    -2.5959 C.ar    
   9 C9            -3.9413    -1.2339    -3.7410 C.ar    
  10 C10           -4.6791    -0.7445    -4.8011 C.ar    
  11 C11           -5.2388     0.5154    -4.7378 C.ar    
  12 C12           -5.0619     1.3056    -3.5975 C.ar    
  13 C13           -4.3231     0.8144    -2.5212 C.ar    
  14 C14           -5.6423     2.6131    -3.5329 C.1     
  15 O15           -3.0742    -2.1477    -1.1350 O.2     
  16 C16           -6.1181     3.6850    -3.4800 C.1     
  17 C17           -6.6985     4.9926    -3.4154 C.ar    
  18 N18           -6.5262     5.7382    -2.3282 N.ar    
  19 C19           -7.0435     6.9456    -2.2309 C.ar    
  20 C20           -7.7895     7.4847    -3.2630 C.ar    
  21 C21           -7.9949     6.7408    -4.4175 C.ar    
  22 C22           -7.4370     5.4780    -4.4978 C.ar    
  23 C23            1.6049     1.4204    -0.0513 C.ar    
  24 N24            2.5019     0.5560    -0.4984 N.ar    
  25 C25            3.7913     0.8385    -0.5082 C.ar    
  26 C26            4.2532     2.0561    -0.0483 C.ar    
  27 C27            3.3441     2.9922     0.4298 C.ar    
  28 C28            1.9985     2.6692     0.4220 C.ar    
  29 Cl29           5.9519     2.4134    -0.0668 Cl      
  30 Cl30           0.8186     3.8004     1.0068 Cl      
  31 C31           -6.0418     1.0409    -5.8997 C.3     
  32 F32           -6.0776     0.0789    -6.9148 F       
  33 F33           -7.3455     1.3214    -5.4768 F       
  34 F34           -5.4476     2.2103    -6.3863 F       
  35 H35            0.4755    -0.9503    -0.5533 H       
  36 H36            0.5879    -0.5801     1.1846 H       
  37 H37           -1.5781    -1.7083     0.5346 H       
  38 H38           -1.8115    -0.1084     1.2872 H       
  39 H39           -2.3328     1.3522    -2.2314 H       
  40 H40           -2.3095     1.9111    -0.5380 H       
  41 H41           -0.1651     2.4734    -1.5750 H       
  42 H42            0.0451     0.7949    -2.1306 H       
  43 H43           -3.5060    -2.2206    -3.7978 H       
  44 H44           -4.8183    -1.3506    -5.6841 H       
  45 H45           -4.1830     1.4199    -1.6379 H       
  46 H46           -6.8832     7.5227    -1.3321 H       
  47 H47           -8.2091     8.4756    -3.1718 H       
  48 H48           -8.5740     7.1414    -5.2363 H       
  49 H49           -7.5767     4.8726    -5.3813 H       
  50 H50            4.4942     0.1079    -0.8803 H       
  51 H51            3.6796     3.9516     0.7949 H       
@<TRIPOS>BOND
   1    1    2 1
   2    1   23 1
   3    1    6 1
   4    2    3 1
   5    2   35 1
   6    2   36 1
   7    3    4 1
   8    3   37 1
   9    3   38 1
  10    4    5 1
  11    4    7 am
  12    5    6 1
  13    5   39 1
  14    5   40 1
  15    6   41 1
  16    6   42 1
  17    7    8 1
  18    7   15 2
  19    8    9 ar
  20    8   13 ar
  21    9   10 ar
  22    9   43 1
  23   10   11 ar
  24   10   44 1
  25   11   12 ar
  26   11   31 1
  27   12   13 ar
  28   12   14 1
  29   13   45 1
  30   14   16 3
  31   16   17 1
  32   17   18 ar
  33   17   22 ar
  34   18   19 ar
  35   19   20 ar
  36   19   46 1
  37   20   21 ar
  38   20   47 1
  39   21   22 ar
  40   21   48 1
  41   22   49 1
  42   23   24 ar
  43   23   28 ar
  44   24   25 ar
  45   25   26 ar
  46   25   50 1
  47   26   27 ar
  48   26   29 1
  49   27   28 ar
  50   27   51 1
  51   28   30 1
  52   31   32 1
  53   31   33 1
  54   31   34 1

#	End of record

