#	Name: ASD00310041
#	Creating user name:	WinNT
#	Creation time:	15. 06. 2019 18:33

#	Modifying user name:	WinNT
#	Modification time:	15. 06. 2019 18:33

#	Program:	/corina/corina34_cracker 3.40 0067  02.08.2006

@<TRIPOS>MOLECULE
ASD00310041
  31   32    0    0    0
SMALL
NO_CHARGES


@<TRIPOS>ATOM
   1 C1            -0.0168     1.3843     0.0097 C.ar    
   2 C2             0.0021    -0.0041     0.0020 C.ar    
   3 C3             1.2206    -0.6652    -0.0132 C.ar    
   4 C4             2.3828     0.0884    -0.0203 C.ar    
   5 C5             2.2925     1.4751    -0.0120 C.ar    
   6 N6             1.1115     2.0755     0.0026 N.ar    
   7 N7             3.4533     2.2403    -0.0186 N.3     
   8 C8             3.1370     3.6804    -0.0079 C.3     
   9 C9             3.8397     4.2937     1.2215 C.3     
  10 C10            4.9758     3.2794     1.5169 C.3     
  11 C11            4.2960     1.9347     1.1572 C.3     
  12 O12            4.3792     5.5789     0.9062 O.3     
  13 C13            4.4265     6.4776     2.0162 C.3     
  14 O14           -1.2050     2.0393     0.0188 O.3     
  15 C15           -1.1585     3.4675     0.0264 C.3     
  16 Br16          -1.6162    -0.9822     0.0129 Br      
  17 H17            1.2628    -1.7443    -0.0191 H       
  18 H18            3.3480    -0.3960    -0.0318 H       
  19 H19            3.5088     4.1485    -0.9193 H       
  20 H20            2.0593     3.8227     0.0717 H       
  21 H21            3.1527     4.3594     2.0652 H       
  22 H22            5.8395     3.4635     0.8780 H       
  23 H23            5.2581     3.3049     2.5694 H       
  24 H24            3.6793     1.5875     1.9861 H       
  25 H25            5.0464     1.1865     0.9020 H       
  26 H26            3.4180     6.6370     2.3979 H       
  27 H27            5.0495     6.0514     2.8026 H       
  28 H28            4.8480     7.4300     1.6949 H       
  29 H29           -0.6289     3.8091     0.9157 H       
  30 H30           -0.6373     3.8188    -0.8642 H       
  31 H31           -2.1738     3.8641     0.0333 H       
@<TRIPOS>BOND
   1    1    2 ar
   2    1    6 ar
   3    1   14 1
   4    2    3 ar
   5    2   16 1
   6    3    4 ar
   7    3   17 1
   8    4    5 ar
   9    4   18 1
  10    5    6 ar
  11    5    7 1
  12    7    8 1
  13    7   11 1
  14    8    9 1
  15    8   19 1
  16    8   20 1
  17    9   10 1
  18    9   12 1
  19    9   21 1
  20   10   11 1
  21   10   22 1
  22   10   23 1
  23   11   24 1
  24   11   25 1
  25   12   13 1
  26   13   26 1
  27   13   27 1
  28   13   28 1
  29   14   15 1
  30   15   29 1
  31   15   30 1
  32   15   31 1

#	End of record

