#	Name: ASD01916301
#	Creating user name:	WinNT
#	Creation time:	15. 06. 2019 20:07

#	Modifying user name:	WinNT
#	Modification time:	15. 06. 2019 20:07

#	Program:	/corina/corina34_cracker 3.40 0067  02.08.2006

@<TRIPOS>MOLECULE
ASD01916301
  44   45    0    0    0
SMALL
NO_CHARGES


@<TRIPOS>ATOM
   1 C1            -0.0167     1.3816     0.0096 C.ar    
   2 C2             0.0021    -0.0041     0.0020 C.ar    
   3 C3             1.2065    -0.6809    -0.0127 C.ar    
   4 C4             2.4058     0.0358    -0.0204 C.ar    
   5 C5             2.3775     1.4334    -0.0130 C.ar    
   6 C6             1.1683     2.0961     0.0022 C.ar    
   7 F7            -1.1593    -0.6943     0.0094 F       
   8 C8             3.6583    -0.6582    -0.0351 C.1     
   9 C9             4.6851    -1.2271    -0.0473 C.1     
  10 C10            5.9377    -1.9211    -0.0621 C.ar    
  11 C11            7.1372    -1.2005    -0.0697 C.ar    
  12 C12            8.3313    -1.8630    -0.0833 C.ar    
  13 C13            8.3556    -3.2608    -0.0901 C.ar    
  14 C14            7.1576    -3.9814    -0.0829 C.ar    
  15 C15            5.9627    -3.3202    -0.0630 C.ar    
  16 C16            9.6468    -3.9763    -0.1053 C.2     
  17 O17           10.6889    -3.3498    -0.1120 O.2     
  18 N18            9.6706    -5.3238    -0.1119 N.am    
  19 C19           10.9519    -6.0338    -0.1270 C.3     
  20 C20           10.7700    -7.4273     0.4778 C.3     
  21 O21            9.9010    -8.1981    -0.3545 O.3     
  22 C22           12.1297    -8.1218     0.5768 C.3     
  23 C23           10.1589    -7.3012     1.8748 C.3     
  24 C24           11.4458    -6.1642    -1.5692 C.3     
  25 H25           -0.9607     1.9063     0.0170 H       
  26 H26            1.2208    -1.7608    -0.0179 H       
  27 H27            3.3011     1.9932    -0.0185 H       
  28 H28            1.1460     3.1758     0.0078 H       
  29 H29            7.1186    -0.1206    -0.0652 H       
  30 H30            9.2572    -1.3069    -0.0892 H       
  31 H31            7.1770    -5.0612    -0.0889 H       
  32 H32            5.0373    -3.8770    -0.0575 H       
  33 H33            8.8392    -5.8235    -0.1066 H       
  34 H34           11.6831    -5.4763     0.4584 H       
  35 H35            9.0190    -7.8164    -0.4623 H       
  36 H36           12.7926    -7.5339     1.2116 H       
  37 H37           12.0001    -9.1146     1.0076 H       
  38 H38           12.5651    -8.2117    -0.4184 H       
  39 H39            9.1902    -6.8065     1.8043 H       
  40 H40           10.0293    -8.2940     2.3056 H       
  41 H41           10.8218    -6.7133     2.5096 H       
  42 H42           11.5754    -5.1714    -2.0001 H       
  43 H43           12.3991    -6.6925    -1.5804 H       
  44 H44           10.7146    -6.7217    -2.1546 H       
@<TRIPOS>BOND
   1    1    2 ar
   2    1    6 ar
   3    1   25 1
   4    2    3 ar
   5    2    7 1
   6    3    4 ar
   7    3   26 1
   8    4    5 ar
   9    4    8 1
  10    5    6 ar
  11    5   27 1
  12    6   28 1
  13    8    9 3
  14    9   10 1
  15   10   11 ar
  16   10   15 ar
  17   11   12 ar
  18   11   29 1
  19   12   13 ar
  20   12   30 1
  21   13   14 ar
  22   13   16 1
  23   14   15 ar
  24   14   31 1
  25   15   32 1
  26   16   17 2
  27   16   18 am
  28   18   19 1
  29   18   33 1
  30   19   20 1
  31   19   24 1
  32   19   34 1
  33   20   21 1
  34   20   22 1
  35   20   23 1
  36   21   35 1
  37   22   36 1
  38   22   37 1
  39   22   38 1
  40   23   39 1
  41   23   40 1
  42   23   41 1
  43   24   42 1
  44   24   43 1
  45   24   44 1

#	End of record

