#	Name: ASD01816495
#	Creating user name:	WinNT
#	Creation time:	15. 06. 2019 19:35

#	Modifying user name:	WinNT
#	Modification time:	15. 06. 2019 19:35

#	Program:	/corina/corina34_cracker 3.40 0067  02.08.2006

@<TRIPOS>MOLECULE
ASD01816495
  68   73    0    0    0
SMALL
NO_CHARGES


@<TRIPOS>ATOM
   1 C1            -0.0167     1.3813     0.0096 C.ar    
   2 C2             0.0021    -0.0041     0.0020 C.ar    
   3 C3             1.1984    -0.6909    -0.0127 C.ar    
   4 C4             2.4015     0.0059    -0.0200 C.ar    
   5 C5             2.3790     1.4106    -0.0127 C.ar    
   6 C6             1.1663     2.0916     0.0022 C.ar    
   7 N7             3.6053    -0.6773    -0.0338 N.pl3   
   8 C8             4.7970    -0.0586    -0.0409 C.2     
   9 C9             4.9000     1.3102    -0.0349 C.2     
  10 C10            3.6670     2.1301    -0.0207 C.2     
  11 C11            5.9971     2.2729    -0.0403 C.2     
  12 N12            5.4246     3.4960    -0.0301 N.am    
  13 N13            4.0323     3.3799    -0.0185 N.2     
  14 C14            6.1269     4.7088    -0.0308 C.ar    
  15 O15            7.1915     2.0228    -0.0514 O.2     
  16 C16            3.5779    -2.1420    -0.0404 C.3     
  17 C17            3.5560    -2.6376    -1.4634 C.ar    
  18 C18            4.7441    -2.8868    -2.1256 C.ar    
  19 C19            4.7272    -3.3407    -3.4300 C.ar    
  20 C20            3.5158    -3.5470    -4.0761 C.ar    
  21 C21            2.3246    -3.2963    -3.4085 C.ar    
  22 C22            2.3478    -2.8475    -2.1024 C.ar    
  23 N23            3.4955    -4.0071    -5.4001 N.pl3   
  24 C24            2.3909    -4.2483    -6.1420 C.2     
  25 C25            2.7979    -4.6777    -7.3589 C.2     
  26 C26            4.1970    -4.7001    -7.3621 C.2     
  27 N27            4.6159    -4.2927    -6.1910 N.2     
  28 C28            7.0625     4.9700    -1.0205 C.ar    
  29 C29            7.7538     6.1673    -1.0196 C.ar    
  30 C30            7.5158     7.1071    -0.0339 C.ar    
  31 C31            6.5852     6.8553     0.9571 C.ar    
  32 C32            5.8828     5.6594     0.9609 C.ar    
  33 N33            4.9408     5.4025     1.9619 N.pl3   
  34 C34            4.6946     6.3974     3.0088 C.3     
  35 C35            3.6268     5.8722     3.9705 C.3     
  36 C36            4.1120     4.5692     4.6091 C.3     
  37 C37            3.3697     6.9111     5.0638 C.3     
  38 C38            2.3309     5.6109     3.2003 C.3     
  39 H39           -0.9602     1.9068     0.0170 H       
  40 H40           -0.9289    -0.5515     0.0080 H       
  41 H41            1.2004    -1.7709    -0.0181 H       
  42 H42            1.1506     3.1715     0.0074 H       
  43 H43            5.6983    -0.6537    -0.0513 H       
  44 H44            4.4654    -2.5243     0.4639 H       
  45 H45            2.6859    -2.4910     0.4797 H       
  46 H46            5.6861    -2.7262    -1.6225 H       
  47 H47            5.6555    -3.5345    -3.9469 H       
  48 H48            1.3807    -3.4555    -3.9086 H       
  49 H49            1.4215    -2.6523    -1.5825 H       
  50 H50            1.3676    -4.1216    -5.8206 H       
  51 H51            2.1562    -4.9544    -8.1824 H       
  52 H52            4.8234    -4.9978    -8.1900 H       
  53 H53            7.2513     4.2381    -1.7919 H       
  54 H54            8.4823     6.3689    -1.7910 H       
  55 H55            8.0586     8.0408    -0.0379 H       
  56 H56            6.4021     7.5916     1.7257 H       
  57 H57            4.4504     4.5657     1.9632 H       
  58 H58            5.6179     6.5835     3.5575 H       
  59 H59            4.3490     7.3256     2.5539 H       
  60 H60            5.0353     4.7553     5.1578 H       
  61 H61            3.3513     4.1951     5.2942 H       
  62 H62            4.2952     3.8290     3.8302 H       
  63 H63            3.0240     7.8394     4.6088 H       
  64 H64            2.6090     6.5370     5.7489 H       
  65 H65            4.2930     7.0972     5.6125 H       
  66 H66            2.5141     4.8708     2.4214 H       
  67 H67            1.5702     5.2368     3.8854 H       
  68 H68            1.9852     6.5392     2.7453 H       
@<TRIPOS>BOND
   1    1    2 ar
   2    1    6 ar
   3    1   39 1
   4    2    3 ar
   5    2   40 1
   6    3    4 ar
   7    3   41 1
   8    4    5 ar
   9    4    7 1
  10    5    6 ar
  11    5   10 1
  12    6   42 1
  13    7    8 1
  14    7   16 1
  15    8    9 2
  16    8   43 1
  17    9   10 1
  18    9   11 1
  19   10   13 2
  20   11   12 am
  21   11   15 2
  22   12   13 1
  23   12   14 1
  24   14   28 ar
  25   14   32 ar
  26   16   17 1
  27   16   44 1
  28   16   45 1
  29   17   18 ar
  30   17   22 ar
  31   18   19 ar
  32   18   46 1
  33   19   20 ar
  34   19   47 1
  35   20   21 ar
  36   20   23 1
  37   21   22 ar
  38   21   48 1
  39   22   49 1
  40   23   24 1
  41   23   27 1
  42   24   25 2
  43   24   50 1
  44   25   26 1
  45   25   51 1
  46   26   27 2
  47   26   52 1
  48   28   29 ar
  49   28   53 1
  50   29   30 ar
  51   29   54 1
  52   30   31 ar
  53   30   55 1
  54   31   32 ar
  55   31   56 1
  56   32   33 1
  57   33   34 1
  58   33   57 1
  59   34   35 1
  60   34   58 1
  61   34   59 1
  62   35   36 1
  63   35   37 1
  64   35   38 1
  65   36   60 1
  66   36   61 1
  67   36   62 1
  68   37   63 1
  69   37   64 1
  70   37   65 1
  71   38   66 1
  72   38   67 1
  73   38   68 1

#	End of record

