#	Name: ASD05740069
#	Creating user name:	WinNT
#	Creation time:	15. 06. 2019 21:02

#	Modifying user name:	WinNT
#	Modification time:	15. 06. 2019 21:02

#	Program:	/corina/corina34_cracker 3.40 0067  02.08.2006

@<TRIPOS>MOLECULE
ASD05740069
  50   51    0    0    0
SMALL
NO_CHARGES


@<TRIPOS>ATOM
   1 C1            -0.0184     1.5028     0.0103 C.3     
   2 C2             1.2421    -0.7051    -0.0136 C.2     
   3 C3             1.2252    -2.0885    -0.0204 C.2     
   4 C4             0.0021    -0.0041     0.0020 C.2     
   5 C5            -1.1619    -0.7046     0.0098 C.2     
   6 C6            -1.1261    -2.1083     0.0024 C.2     
   7 O7             0.0469    -2.7567    -0.0127 O.3     
   8 C8            -2.4831     0.0201     0.0268 C.3     
   9 C9            -2.9971     0.1608    -1.3828 C.ar    
  10 C10           -2.7549     1.3158    -2.1153 C.ar    
  11 O11           -2.1684    -2.7412     0.0094 O.2     
  12 C12           -4.1746    -0.6931    -3.2845 C.ar    
  13 N13           -3.9268     0.4259    -3.9462 N.ar    
  14 C14           -3.2388     1.4134    -3.4039 C.ar    
  15 N15           -4.9038    -1.7086    -3.8954 N.am    
  16 S16           -5.4575    -1.5141    -5.4439 S.o2    
  17 O17           -6.1237    -2.7216    -5.7865 O.2     
  18 O18           -6.0856    -0.2403    -5.4884 O.2     
  19 S19            2.8739    -2.7051    -0.0390 S.3     
  20 C20            3.5508    -1.0881    -0.0371 C.2     
  21 C21            2.5965    -0.1717    -0.0182 C.2     
  22 O22            4.8809    -0.8121    -0.0482 O.3     
  23 C23            5.7748    -1.9270    -0.0627 C.3     
  24 C24           -3.7166    -0.8607    -1.9793 C.ar    
  25 F25           -3.9705    -2.0038    -1.3055 F       
  26 N26           -4.1308    -1.4160    -6.4302 N.am    
  27 C27           -3.2407    -2.5702    -6.5776 C.3     
  28 H28            1.0042     1.8801     0.0026 H       
  29 H29           -0.5455     1.8639    -0.8728 H       
  30 H30           -0.5286     1.8543     0.9071 H       
  31 H31           -3.2007    -0.5463     0.6204 H       
  32 H32           -2.3494     1.0091     0.4651 H       
  33 H33           -2.1937     2.1297    -1.6805 H       
  34 H34           -3.0524     2.3099    -3.9764 H       
  35 H35           -5.0878    -2.5305    -3.4142 H       
  36 H36            2.8057     0.8879    -0.0142 H       
  37 H37            6.8038    -1.5675    -0.0705 H       
  38 H38            5.6096    -2.5367     0.8255 H       
  39 H39            5.5928    -2.5270    -0.9543 H       
  40 H40           -3.9431    -0.5943    -6.9103 H       
  41 H41           -2.8267    -2.8363    -5.6050 H       
  42 H42           -3.8034    -3.4144    -6.9763 H       
  43 H43           -2.4298    -2.3187    -7.2612 H       
  44 C44           12.3310     9.9793     7.7754 C.3     
  45 N45           12.3509     8.5144     7.7673 N.2     
  46 C46           12.8916     7.9019     6.8213 C.1     
  47 O47           13.4141     7.3099     5.9071 O.2     
  48 H48           13.3536    10.3566     7.7676 H       
  49 H49           11.8038    10.3403     6.8923 H       
  50 H50           11.8208    10.3308     8.6722 H       
@<TRIPOS>BOND
   1    1    4 1
   2    1   28 1
   3    1   29 1
   4    1   30 1
   5    2    3 2
   6    2    4 1
   7    2   21 1
   8    3   19 1
   9    3    7 1
  10    4    5 2
  11    5    6 1
  12    5    8 1
  13    6    7 1
  14    6   11 2
  15    8    9 1
  16    8   31 1
  17    8   32 1
  18    9   10 ar
  19    9   24 ar
  20   10   14 ar
  21   10   33 1
  22   12   13 ar
  23   12   15 1
  24   12   24 ar
  25   13   14 ar
  26   14   34 1
  27   15   16 am
  28   15   35 1
  29   16   17 2
  30   16   18 2
  31   16   26 am
  32   19   20 1
  33   20   21 2
  34   20   22 1
  35   21   36 1
  36   22   23 1
  37   23   37 1
  38   23   38 1
  39   23   39 1
  40   24   25 1
  41   26   27 1
  42   26   40 1
  43   27   41 1
  44   27   42 1
  45   27   43 1
  46   44   45 1
  47   44   48 1
  48   44   49 1
  49   44   50 1
  50   45   46 2
  51   46   47 2

#	End of record

