#	Name: ASD08830018
#	Creating user name:	WinNT
#	Creation time:	15. 06. 2019 21:19

#	Modifying user name:	WinNT
#	Modification time:	15. 06. 2019 21:19

#	Program:	/corina/corina34_cracker 3.40 0067  02.08.2006

@<TRIPOS>MOLECULE
ASD08830018
  46   48    0    0    0
SMALL
NO_CHARGES


@<TRIPOS>ATOM
   1 C1            -0.1861     0.3800    -0.7485 C.ar    
   2 C2            -0.0342    -0.9885    -0.4072 C.ar    
   3 C3             0.9542     1.1901    -0.9081 C.ar    
   4 C4             2.1918     0.6627    -0.7363 C.ar    
   5 C5             2.3574    -0.6951    -0.3977 C.ar    
   6 C6             1.2523    -1.5188    -0.2332 C.ar    
   7 C7             3.7102    -1.2433    -0.2180 C.2     
   8 C8             4.9135    -0.3536    -0.3959 C.3     
   9 C9             6.1878    -1.1651    -0.1542 C.3     
  10 N10            7.3608    -0.2979    -0.3277 N.3     
  11 C11            8.5899    -0.9745     0.1257 C.3     
  12 O12            3.8573    -2.4112     0.0735 O.2     
  13 C13           -1.4764     0.9039    -0.9277 C.ar    
  14 C14           -1.1784    -1.7911    -0.2495 C.ar    
  15 C15           -2.4132    -1.2460    -0.4260 C.ar    
  16 C16           -2.5614     0.0953    -0.7723 C.ar    
  17 C17            9.5717    -0.9849    -1.0648 C.3     
  18 C18            9.0632     0.1851    -1.9475 C.3     
  19 C19            7.5306     0.0865    -1.7452 C.3     
  20 N20           10.9448    -0.7321    -0.6078 N.3     
  21 C21           11.4044    -1.7975     0.2930 C.3     
  22 C22           11.8585    -0.5756    -1.7474 C.3     
  23 H23            0.8433     2.2325    -1.1679 H       
  24 H24            3.0613     1.2910    -0.8610 H       
  25 H25            1.3821    -2.5590     0.0264 H       
  26 H26            4.9236     0.0452    -1.4103 H       
  27 H27            4.8658     0.4691     0.3175 H       
  28 H28            6.1777    -1.5639     0.8601 H       
  29 H29            6.2355    -1.9878    -0.8677 H       
  30 H30            9.0267    -0.4287     0.9619 H       
  31 H31            8.3609    -1.9969     0.4265 H       
  32 H32           -1.6081     1.9439    -1.1874 H       
  33 H33           -1.0778    -2.8347     0.0099 H       
  34 H34           -3.2903    -1.8644    -0.3047 H       
  35 H35           -3.5522     0.5036    -0.9061 H       
  36 H36            9.5121    -1.9296    -1.6053 H       
  37 H37            9.4440     1.1406    -1.5867 H       
  38 H38            9.3298     0.0300    -2.9930 H       
  39 H39            7.1099    -0.6779    -2.3986 H       
  40 H40            7.0598     1.0509    -1.9358 H       
  41 H41           11.3811    -2.7525    -0.2320 H       
  42 H42           12.4235    -1.5855     0.6164 H       
  43 H43           10.7497    -1.8452     1.1632 H       
  44 H44           11.5927     0.3220    -2.3057 H       
  45 H45           12.8819    -0.4872    -1.3830 H       
  46 H46           11.7788    -1.4457    -2.3991 H       
@<TRIPOS>BOND
   1    1    2 ar
   2    1    3 ar
   3    1   13 ar
   4    2   14 ar
   5    2    6 ar
   6    3    4 ar
   7    3   23 1
   8    4    5 ar
   9    4   24 1
  10    5    6 ar
  11    5    7 1
  12    6   25 1
  13    7    8 1
  14    7   12 2
  15    8    9 1
  16    8   26 1
  17    8   27 1
  18    9   10 1
  19    9   28 1
  20    9   29 1
  21   10   11 1
  22   10   19 1
  23   11   17 1
  24   11   30 1
  25   11   31 1
  26   13   16 ar
  27   13   32 1
  28   14   15 ar
  29   14   33 1
  30   15   16 ar
  31   15   34 1
  32   16   35 1
  33   17   18 1
  34   17   20 1
  35   17   36 1
  36   18   19 1
  37   18   37 1
  38   18   38 1
  39   19   39 1
  40   19   40 1
  41   20   21 1
  42   20   22 1
  43   21   41 1
  44   21   42 1
  45   21   43 1
  46   22   44 1
  47   22   45 1
  48   22   46 1

#	End of record

