#	Name: ASD09740284
#	Creating user name:	WinNT
#	Creation time:	15. 06. 2019 21:23

#	Modifying user name:	WinNT
#	Modification time:	15. 06. 2019 21:23

#	Program:	/corina/corina34_cracker 3.40 0067  02.08.2006

@<TRIPOS>MOLECULE
ASD09740284
  45   48    0    0    0
SMALL
NO_CHARGES


@<TRIPOS>ATOM
   1 N1            -0.0144     1.2085     0.0087 N.2     
   2 O2             0.0021    -0.0041     0.0020 O.3     
   3 C3             1.2064     1.6802    -0.0004 C.2     
   4 N4             2.0463     0.6241    -0.0141 N.2     
   5 C5             1.2701    -0.4441    -0.0125 C.2     
   6 C6             1.7125    -1.8532    -0.0242 C.ar    
   7 C7             1.5952     3.1123     0.0035 C.ar    
   8 C8             0.6162     4.0959     0.0187 C.ar    
   9 C9             0.9939     5.4381     0.0223 C.ar    
  10 C10            2.3582     5.7848     0.0106 C.ar    
  11 C11            3.3228     4.7807    -0.0038 C.ar    
  12 C12            2.9480     3.4686    -0.0022 C.ar    
  13 C13            3.0747    -2.1586    -0.0389 C.ar    
  14 C14            3.4861    -3.4747    -0.0499 C.ar    
  15 C15            2.5490    -4.4978    -0.0464 C.ar    
  16 C16            1.1874    -4.1997    -0.0313 C.ar    
  17 C17            0.7687    -2.8832    -0.0149 C.ar    
  18 O18            2.9594    -5.7929    -0.0581 O.3     
  19 O19            0.2713    -5.2048    -0.0280 O.3     
  20 C20           -1.1067    -4.8266    -0.0123 C.3     
  21 C21           -1.9803    -6.0826    -0.0108 C.3     
  22 C22            4.3690    -6.0268    -0.0738 C.3     
  23 C23            4.6360    -7.5332    -0.0853 C.3     
  24 C24            0.2545     6.7031     0.0366 C.2     
  25 C25            1.1652     7.6890     0.0330 C.2     
  26 N26            2.4267     7.1592     0.0175 N.pl3   
  27 H27           -0.4290     3.8241     0.0273 H       
  28 H28            4.3709     5.0412    -0.0132 H       
  29 H29            3.7037     2.6970    -0.0131 H       
  30 H30            3.8062    -1.3642    -0.0420 H       
  31 H31            4.5402    -3.7096    -0.0616 H       
  32 H32           -0.2859    -2.6509    -0.0032 H       
  33 H33           -1.3123    -4.2399     0.8831 H       
  34 H34           -1.3298    -4.2299    -0.8968 H       
  35 H35           -1.7748    -6.6693    -0.9061 H       
  36 H36           -1.7573    -6.6793     0.8737 H       
  37 H37           -3.0314    -5.7941     0.0012 H       
  38 H38            4.8025    -5.5741    -0.9656 H       
  39 H39            4.8205    -5.5845     0.8143 H       
  40 H40            5.7112    -7.7116    -0.0973 H       
  41 H41            4.2025    -7.9859     0.8064 H       
  42 H42            4.1845    -7.9755    -0.9734 H       
  43 H43           -0.8191     6.8199     0.0474 H       
  44 H44            0.9362     8.7444     0.0410 H       
  45 H45            3.2477     7.6759     0.0122 H       
@<TRIPOS>BOND
   1    1    2 1
   2    1    3 2
   3    2    5 1
   4    3    4 1
   5    3    7 1
   6    4    5 2
   7    5    6 1
   8    6   13 ar
   9    6   17 ar
  10    7    8 ar
  11    7   12 ar
  12    8    9 ar
  13    8   27 1
  14    9   10 ar
  15    9   24 1
  16   10   11 ar
  17   10   26 1
  18   11   12 ar
  19   11   28 1
  20   12   29 1
  21   13   14 ar
  22   13   30 1
  23   14   15 ar
  24   14   31 1
  25   15   16 ar
  26   15   18 1
  27   16   17 ar
  28   16   19 1
  29   17   32 1
  30   18   22 1
  31   19   20 1
  32   20   21 1
  33   20   33 1
  34   20   34 1
  35   21   35 1
  36   21   36 1
  37   21   37 1
  38   22   23 1
  39   22   38 1
  40   22   39 1
  41   23   40 1
  42   23   41 1
  43   23   42 1
  44   24   25 2
  45   24   43 1
  46   25   26 1
  47   25   44 1
  48   26   45 1

#	End of record

