#	Name: ASD05143264
#	Creating user name:	WinNT
#	Creation time:	15. 06. 2019 20:57

#	Modifying user name:	WinNT
#	Modification time:	15. 06. 2019 20:57

#	Program:	/corina/corina34_cracker 3.40 0067  02.08.2006

@<TRIPOS>MOLECULE
ASD05143264
  45   47    0    0    0
SMALL
NO_CHARGES


@<TRIPOS>ATOM
   1 C1            -0.2536     1.4615     0.0988 C.2     
   2 N2            -0.0137     0.2085    -0.2333 N.2     
   3 S3            -1.5336    -0.5480    -0.3041 S.3     
   4 C4            -2.4177     0.8683     0.1190 C.2     
   5 N5            -1.5119     1.8064     0.2889 N.2     
   6 N6            -3.7876     0.9913     0.2566 N.pl3   
   7 C7            -4.3383     2.1839     0.7408 C.ar    
   8 C8            -5.6378     2.5373     0.4016 C.ar    
   9 C9            -6.1803     3.7136     0.8801 C.ar    
  10 C10           -5.4275     4.5424     1.6990 C.ar    
  11 C11           -4.1293     4.1904     2.0380 C.ar    
  12 C12           -3.5873     3.0114     1.5654 C.ar    
  13 C13            1.2093    -0.3655    -0.4722 C.ar    
  14 C14            1.6179    -1.4772     0.2665 C.ar    
  15 C15            2.0476     0.1562    -1.4589 C.ar    
  16 C16            3.2758    -0.4256    -1.6948 C.ar    
  17 C17            3.6778    -1.5250    -0.9552 C.ar    
  18 C18            2.8485    -2.0503     0.0214 C.ar    
  19 C19            0.8465     2.4410     0.2580 C.ar    
  20 C20            0.6403     3.7832    -0.0593 C.ar    
  21 C21            2.0908     2.0254     0.7314 C.ar    
  22 C22            3.1114     2.9424     0.8780 C.ar    
  23 C23            2.9023     4.2716     0.5565 C.ar    
  24 C24            1.6686     4.6908     0.0915 C.ar    
  25 Cl25           5.2248    -2.2521    -1.2582 Cl      
  26 O26           -5.9624     5.7008     2.1694 O.3     
  27 C27           -5.1309     6.5059     3.0076 C.3     
  28 H28           -4.3675     0.2513     0.0175 H       
  29 H29           -6.2237     1.8925    -0.2366 H       
  30 H30           -7.1908     3.9886     0.6163 H       
  31 H31           -3.5438     4.8364     2.6754 H       
  32 H32           -2.5767     2.7373     1.8298 H       
  33 H33            0.9720    -1.8876     1.0286 H       
  34 H34            1.7350     1.0135    -2.0367 H       
  35 H35            3.9251    -0.0230    -2.4582 H       
  36 H36            3.1674    -2.9079     0.5951 H       
  37 H37           -0.3223     4.1115    -0.4227 H       
  38 H38            2.2551     0.9880     0.9830 H       
  39 H39            4.0753     2.6218     1.2448 H       
  40 H40            3.7041     4.9857     0.6733 H       
  41 H41            1.5113     5.7298    -0.1578 H       
  42 H42           -4.8447     5.9354     3.8912 H       
  43 H43           -4.2360     6.7983     2.4583 H       
  44 H44           -5.6778     7.3981     3.3125 H       
  45 Br45          10.2248    12.3981     8.8912 Br      
@<TRIPOS>BOND
   1    1    2 2
   2    1   19 1
   3    1    5 1
   4    2    3 1
   5    2   13 1
   6    3    4 1
   7    4    5 2
   8    4    6 1
   9    6    7 1
  10    6   28 1
  11    7    8 ar
  12    7   12 ar
  13    8    9 ar
  14    8   29 1
  15    9   10 ar
  16    9   30 1
  17   10   11 ar
  18   10   26 1
  19   11   12 ar
  20   11   31 1
  21   12   32 1
  22   13   14 ar
  23   13   15 ar
  24   14   18 ar
  25   14   33 1
  26   15   16 ar
  27   15   34 1
  28   16   17 ar
  29   16   35 1
  30   17   18 ar
  31   17   25 1
  32   18   36 1
  33   19   20 ar
  34   19   21 ar
  35   20   24 ar
  36   20   37 1
  37   21   22 ar
  38   21   38 1
  39   22   23 ar
  40   22   39 1
  41   23   24 ar
  42   23   40 1
  43   24   41 1
  44   26   27 1
  45   27   42 1
  46   27   43 1
  47   27   44 1

#	End of record

