#	Name: ASD03540200
#	Creating user name:	WinNT
#	Creation time:	15. 06. 2019 20:42

#	Modifying user name:	WinNT
#	Modification time:	15. 06. 2019 20:42

#	Program:	/corina/corina34_cracker 3.40 0067  02.08.2006

@<TRIPOS>MOLECULE
ASD03540200
  57   61    0    0    0
SMALL
NO_CHARGES


@<TRIPOS>ATOM
   1 C1            -0.0161     1.3365     0.0094 C.2     
   2 N2             0.0021    -0.0041     0.0020 N.am    
   3 C3             1.1931    -0.7075    -0.0132 C.2     
   4 C4             2.3928    -0.0051    -0.0209 C.2     
   5 C5             2.3194     1.4734    -0.0115 C.2     
   6 N6             1.1110     2.0661     0.0025 N.am    
   7 C7             3.5129    -0.8381    -0.0361 C.2     
   8 C8             3.2256    -2.1516    -0.0404 C.2     
   9 S9             1.4874    -2.3902    -0.0250 S.3     
  10 C10            4.2183    -3.2259    -0.0565 C.2     
  11 O11            5.4048    -2.9577    -0.0671 O.2     
  12 O12            3.8179    -4.5143    -0.0595 O.3     
  13 O13            3.3358     2.1426    -0.0175 O.2     
  14 O14           -1.0880     1.9101     0.0175 O.2     
  15 C15           -1.2652    -0.7390     0.0107 C.3     
  16 C16            1.0243     3.5285     0.0113 C.3     
  17 C17            0.9786     4.9289     4.0506 C.ar    
  18 C18            2.1891     4.7712     3.3789 C.ar    
  19 C19            2.1980     4.3191     2.0749 C.ar    
  20 C20            1.0082     4.0223     1.4350 C.ar    
  21 C21           -0.1964     4.1774     2.0969 C.ar    
  22 C22           -0.2170     4.6288     3.4010 C.ar    
  23 C23            0.9631     5.4088     5.4547 C.ar    
  24 C24           -0.2475     5.5665     6.1264 C.ar    
  25 C25           -0.2560     6.0132     7.4323 C.ar    
  26 C26            0.9341     6.3047     8.0740 C.ar    
  27 C27            2.1387     6.1503     7.4118 C.ar    
  28 C28            2.1593     5.6979     6.1080 C.ar    
  29 C29            4.8413    -5.5116    -0.0754 C.3     
  30 C30            4.2094    -6.8798    -0.0765 C.ar    
  31 C31            3.9074    -7.5007    -1.2740 C.ar    
  32 C32            3.3277    -8.7556    -1.2750 C.ar    
  33 C33            3.0505    -9.3898    -0.0785 C.ar    
  34 C34            3.3533    -8.7693     1.1191 C.ar    
  35 C35            3.9370    -7.5162     1.1200 C.ar    
  36 H36            4.5244    -0.4597    -0.0438 H       
  37 H37           -2.0950    -0.0322     0.0228 H       
  38 H38           -1.3307    -1.3609    -0.8820 H       
  39 H39           -1.3130    -1.3705     0.8978 H       
  40 H40            1.8863     3.9467    -0.5086 H       
  41 H41            0.1095     3.8412    -0.4921 H       
  42 H42            3.1187     5.0027     3.8776 H       
  43 H43            3.1357     4.1965     1.5533 H       
  44 H44           -1.1225     3.9445     1.5924 H       
  45 H45           -1.1581     4.7490     3.9171 H       
  46 H46           -1.1773     5.3399     5.6260 H       
  47 H47           -1.1937     6.1358     7.9539 H       
  48 H48            0.9228     6.6543     9.0958 H       
  49 H49            3.0650     6.3797     7.9175 H       
  50 H50            3.1007     5.5729     5.5936 H       
  51 H51            5.4510    -5.3923    -0.9710 H       
  52 H52            5.4691    -5.4021     0.8089 H       
  53 H53            4.1240    -7.0051    -2.2089 H       
  54 H54            3.0911    -9.2404    -2.2107 H       
  55 H55            2.5970   -10.3700    -0.0792 H       
  56 H56            3.1364    -9.2647     2.0539 H       
  57 H57            4.1770    -7.0330     2.0556 H       
@<TRIPOS>BOND
   1    1    2 am
   2    1    6 am
   3    1   14 2
   4    2    3 1
   5    2   15 1
   6    3    4 2
   7    3    9 1
   8    4    5 1
   9    4    7 1
  10    5    6 am
  11    5   13 2
  12    6   16 1
  13    7    8 2
  14    7   36 1
  15    8    9 1
  16    8   10 1
  17   10   11 2
  18   10   12 1
  19   12   29 1
  20   15   37 1
  21   15   38 1
  22   15   39 1
  23   16   20 1
  24   16   40 1
  25   16   41 1
  26   17   18 ar
  27   17   22 ar
  28   17   23 1
  29   18   19 ar
  30   18   42 1
  31   19   20 ar
  32   19   43 1
  33   20   21 ar
  34   21   22 ar
  35   21   44 1
  36   22   45 1
  37   23   24 ar
  38   23   28 ar
  39   24   25 ar
  40   24   46 1
  41   25   26 ar
  42   25   47 1
  43   26   27 ar
  44   26   48 1
  45   27   28 ar
  46   27   49 1
  47   28   50 1
  48   29   30 1
  49   29   51 1
  50   29   52 1
  51   30   31 ar
  52   30   35 ar
  53   31   32 ar
  54   31   53 1
  55   32   33 ar
  56   32   54 1
  57   33   34 ar
  58   33   55 1
  59   34   35 ar
  60   34   56 1
  61   35   57 1

#	End of record

