#	Name: ASD01700020
#	Creating user name:	WinNT
#	Creation time:	15. 06. 2019 19:22

#	Modifying user name:	WinNT
#	Modification time:	15. 06. 2019 19:22

#	Program:	/corina/corina34_cracker 3.40 0067  02.08.2006

@<TRIPOS>MOLECULE
ASD01700020
  71   74    0    0    0
SMALL
NO_CHARGES


@<TRIPOS>ATOM
   1 N1            -0.4239     1.4198     1.9637 N.am    
   2 C2            -3.4802    -6.4852     0.6359 C.3     
   3 O3            -7.5910    -3.9600     2.2491 O.3     
   4 C4            -3.5687    -4.9809     0.6185 C.ar    
   5 O5            -6.5696    -5.0345     9.2605 O.2     
   6 C6            -4.7822    -4.3587     0.3335 C.ar    
   7 O7            -7.3647    -7.0548     8.8486 O.3     
   8 C8            -7.4915    -4.1291    -0.1286 C.ar    
   9 O9            -0.8634     3.7698     3.3205 O.3     
  10 C10           -8.0393    -3.5717     1.0254 C.ar    
  11 O11            0.7970    -0.4296     1.7959 O.2     
  12 C12           -8.1987    -3.3462     3.3875 C.3     
  13 C13           -7.5692    -3.9052     4.6651 C.3     
  14 C14           -8.1300    -3.1601     5.8781 C.3     
  15 C15           -7.5005    -3.7190     7.1557 C.3     
  16 C16           -7.8279    -5.2087     7.2760 C.3     
  17 C17           -7.2671    -5.9538     6.0630 C.3     
  18 C18           -7.8966    -5.3949     4.7854 C.3     
  19 C19           -7.2079    -5.7593     8.5344 C.2     
  20 C20           -9.0419    -2.6217     0.9227 C.ar    
  21 C21           -9.4976    -2.2284    -0.3224 C.ar    
  22 C22           -8.9550    -2.7811    -1.4680 C.ar    
  23 C23           -7.9537    -3.7289    -1.3747 C.ar    
  24 C24           -4.8693    -2.9680     0.3157 C.ar    
  25 C25           -3.7648    -2.2095     0.5789 C.ar    
  26 C26           -2.5426    -2.8313     0.8660 C.ar    
  27 C27           -1.3521    -2.0193     1.1495 C.2     
  28 C28           -1.4856    -0.7136     1.4699 C.2     
  29 C29           -0.3009     0.0944     1.7521 C.2     
  30 C30           -1.7219     2.0948     1.8058 C.3     
  31 C31           -1.9900     2.9277     3.0645 C.3     
  32 C32            0.3418     3.0593     3.5958 C.3     
  33 C33            0.7345     2.2334     2.3655 C.3     
  34 C34           -2.4605    -4.2293     0.8878 C.ar    
  35 C35           -1.1498    -4.9034     1.2021 C.3     
  36 F36           -4.5115    -7.0220    -0.1422 F       
  37 F37           -2.2455    -6.8857     0.1141 F       
  38 F38           -0.4675    -5.1744     0.0112 F       
  39 F39           -0.3724    -4.0606     2.0036 F       
  40 F40           -1.3929    -6.1010     1.8832 F       
  41 F41           -3.6014    -6.9443     1.9518 F       
  42 S42           -6.2106    -5.3329    -0.0062 S.3     
  43 H43           -6.9485    -7.3618     9.6657 H       
  44 H44           -8.0414    -2.2684     3.3464 H       
  45 H45           -9.2680    -3.5577     3.3867 H       
  46 H46           -6.4880    -3.7728     4.6254 H       
  47 H47           -7.8967    -2.0988     5.7923 H       
  48 H48           -9.2112    -3.2924     5.9178 H       
  49 H49           -6.4193    -3.5867     7.1159 H       
  50 H50           -7.9000    -3.1883     8.0198 H       
  51 H51           -8.9091    -5.3411     7.3157 H       
  52 H52           -6.1859    -5.8214     6.0233 H       
  53 H53           -7.5004    -7.0151     6.1488 H       
  54 H54           -8.9778    -5.5272     4.8251 H       
  55 H55           -7.4971    -5.9256     3.9213 H       
  56 H56           -9.4683    -2.1882     1.8152 H       
  57 H57          -10.2797    -1.4878    -0.4002 H       
  58 H58           -9.3144    -2.4710    -2.4380 H       
  59 H59           -7.5313    -4.1584    -2.2711 H       
  60 H60           -5.8117    -2.4894     0.0936 H       
  61 H61           -3.8330    -1.1317     0.5646 H       
  62 H62           -0.3700    -2.4660     1.1020 H       
  63 H63           -2.4678    -0.2670     1.5174 H       
  64 H64           -1.6926     2.7473     0.9332 H       
  65 H65           -2.5097     1.3516     1.6828 H       
  66 H66           -2.1483     2.2632     3.9140 H       
  67 H67           -2.8770     3.5426     2.9122 H       
  68 H68            1.1384     3.7679     3.8227 H       
  69 H69            0.1879     2.3981     4.4486 H       
  70 H70            1.5726     1.5820     2.6129 H       
  71 H71            1.0153     2.9001     1.5502 H       
@<TRIPOS>BOND
   1    1   29 am
   2    1   30 1
   3    1   33 1
   4    2    4 1
   5    2   36 1
   6    2   37 1
   7    2   41 1
   8    3   10 1
   9    3   12 1
  10    4    6 ar
  11    4   34 ar
  12    5   19 2
  13    6   24 ar
  14    6   42 1
  15    7   19 1
  16    7   43 1
  17    8   10 ar
  18    8   23 ar
  19    8   42 1
  20    9   31 1
  21    9   32 1
  22   10   20 ar
  23   11   29 2
  24   12   13 1
  25   12   44 1
  26   12   45 1
  27   13   14 1
  28   13   18 1
  29   13   46 1
  30   14   15 1
  31   14   47 1
  32   14   48 1
  33   15   16 1
  34   15   49 1
  35   15   50 1
  36   16   17 1
  37   16   19 1
  38   16   51 1
  39   17   18 1
  40   17   52 1
  41   17   53 1
  42   18   54 1
  43   18   55 1
  44   20   21 ar
  45   20   56 1
  46   21   22 ar
  47   21   57 1
  48   22   23 ar
  49   22   58 1
  50   23   59 1
  51   24   25 ar
  52   24   60 1
  53   25   26 ar
  54   25   61 1
  55   26   27 1
  56   26   34 ar
  57   27   28 2
  58   27   62 1
  59   28   29 1
  60   28   63 1
  61   30   31 1
  62   30   64 1
  63   30   65 1
  64   31   66 1
  65   31   67 1
  66   32   33 1
  67   32   68 1
  68   32   69 1
  69   33   70 1
  70   33   71 1
  71   34   35 1
  72   35   38 1
  73   35   39 1
  74   35   40 1

#	End of record

