#	Name: ASD00170326
#	Creating user name:	WinNT
#	Creation time:	15. 06. 2019 18:31

#	Modifying user name:	WinNT
#	Modification time:	15. 06. 2019 18:31

#	Program:	/corina/corina34_cracker 3.40 0067  02.08.2006

@<TRIPOS>MOLECULE
ASD00170326
  29   30    0    0    0
SMALL
NO_CHARGES


@<TRIPOS>ATOM
   1 C1            -0.0185     1.5119     0.0104 C.3     
   2 C2             0.0021    -0.0041     0.0020 C.2     
   3 C3             1.0770    -0.7297    -0.3285 C.2     
   4 C4             2.3993    -0.0974    -0.7343 C.3     
   5 C5             2.1392     1.3716    -1.0831 C.3     
   6 N6             1.3686     1.9997    -0.0003 N.3     
   7 C7             0.8280    -2.1568    -0.2534 C.2     
   8 C8            -0.4494    -2.4621     0.1378 C.2     
   9 S9            -1.3495    -1.0433     0.4150 S.3     
  10 C10            1.8380    -3.1678    -0.5642 C.2     
  11 O11            2.5673    -3.5892     0.3138 O.2     
  12 O12            1.9612    -3.6331    -1.8245 O.3     
  13 N13           -0.9399    -3.7448     0.2865 N.pl3   
  14 C14            2.9687    -4.6196    -2.0563 C.3     
  15 C15            2.9579    -5.0226    -3.5322 C.3     
  16 H16           -0.5411     1.8757    -0.8743 H       
  17 H17           -0.5241     1.8661     0.9087 H       
  18 H18            3.1060    -0.1593     0.0933 H       
  19 H19            2.8036    -0.6159    -1.6036 H       
  20 H20            3.0900     1.8912    -1.2017 H       
  21 H21            1.5738     1.4300    -2.0132 H       
  22 H22            1.3976     3.0057    -0.0723 H       
  23 H23           -0.3664    -4.5069     0.1097 H       
  24 H24           -1.8578    -3.8836     0.5677 H       
  25 H25            3.9451    -4.2092    -1.7989 H       
  26 H26            2.7685    -5.4954    -1.4390 H       
  27 H27            3.7264    -5.7751    -3.7090 H       
  28 H28            1.9814    -5.4331    -3.7896 H       
  29 H29            3.1580    -4.1469    -4.1495 H       
@<TRIPOS>BOND
   1    1    2 1
   2    1    6 1
   3    1   16 1
   4    1   17 1
   5    2    3 2
   6    2    9 1
   7    3    4 1
   8    3    7 1
   9    4    5 1
  10    4   18 1
  11    4   19 1
  12    5    6 1
  13    5   20 1
  14    5   21 1
  15    6   22 1
  16    7    8 2
  17    7   10 1
  18    8    9 1
  19    8   13 1
  20   10   11 2
  21   10   12 1
  22   12   14 1
  23   13   23 1
  24   13   24 1
  25   14   15 1
  26   14   25 1
  27   14   26 1
  28   15   27 1
  29   15   28 1
  30   15   29 1

#	End of record

