#	Name: ASD03092735
#	Creating user name:	WinNT
#	Creation time:	15. 06. 2019 20:33

#	Modifying user name:	WinNT
#	Modification time:	15. 06. 2019 20:33

#	Program:	/corina/corina34_cracker 3.40 0067  02.08.2006

@<TRIPOS>MOLECULE
ASD03092735
  51   53    0    0    0
SMALL
NO_CHARGES


@<TRIPOS>ATOM
   1 C1            -0.0249     1.2035     0.0135 C.2     
   2 O2             0.6740     1.2246    -0.9816 O.2     
   3 C3             0.4167     0.4601     1.2103 C.ar    
   4 C4             1.5856    -0.3082     1.1695 C.ar    
   5 C5             1.9915    -1.0010     2.2950 C.ar    
   6 C6             1.2452    -0.9351     3.4570 C.ar    
   7 C7             0.0879    -0.1766     3.5032 C.ar    
   8 C8            -0.3270     0.5247     2.3910 C.ar    
   9 F9             2.3148    -0.3731     0.0340 F       
  10 C10           -2.5251     1.2244    -0.0861 C.ar    
  11 C11           -1.3098     1.9250     0.0267 C.ar    
  12 C12           -1.3421     3.3174     0.1521 C.ar    
  13 C13           -2.5843     3.9509     0.1596 C.ar    
  14 C14           -3.7426     3.1825     0.0429 C.ar    
  15 N15           -3.6801     1.8719    -0.0738 N.ar    
  16 N16           -2.5127    -0.1513    -0.2166 N.pl3   
  17 C17           -3.7731    -0.8980    -0.2214 C.3     
  18 C18           -3.4805    -2.3916    -0.3776 C.3     
  19 C19           -4.7969    -3.1714    -0.3827 C.3     
  20 C20           -2.6731     5.4262     0.2907 C.ar    
  21 C21           -3.9179     6.0530     0.2975 C.ar    
  22 C22           -3.9973     7.4244     0.4200 C.ar    
  23 C23           -2.8388     8.1805     0.5361 C.ar    
  24 C24           -1.5975     7.5591     0.5297 C.ar    
  25 C25           -1.5121     6.1874     0.4132 C.ar    
  26 O26           -2.9201     9.5317     0.6558 O.3     
  27 C27           -1.6890    10.2480     0.7712 C.3     
  28 C28           -1.9796    11.7450     0.8956 C.3     
  29 H29            2.8930    -1.5951     2.2663 H       
  30 H30            1.5665    -1.4786     4.3333 H       
  31 H31           -0.4893    -0.1305     4.4148 H       
  32 H32           -1.2278     1.1192     2.4312 H       
  33 H33           -0.4289     3.8871     0.2412 H       
  34 H34           -4.7063     3.6700     0.0487 H       
  35 H35           -1.6695    -0.6226    -0.3049 H       
  36 H36           -4.3002    -0.7272     0.7172 H       
  37 H37           -4.3923    -0.5602    -1.0525 H       
  38 H38           -2.9534    -2.5623    -1.3163 H       
  39 H39           -2.8613    -2.7294     0.4534 H       
  40 H40           -5.3239    -3.0006     0.5560 H       
  41 H41           -5.4161    -2.8336    -1.2138 H       
  42 H42           -4.5884    -4.2355    -0.4940 H       
  43 H43           -4.8195     5.4653     0.2065 H       
  44 H44           -4.9616     7.9107     0.4253 H       
  45 H45           -0.6980     8.1499     0.6198 H       
  46 H46           -0.5463     5.7041     0.4124 H       
  47 H47           -1.1520     9.9073     1.6564 H       
  48 H48           -1.0798    10.0685    -0.1147 H       
  49 H49           -2.5166    12.0856     0.0103 H       
  50 H50           -2.5888    11.9244     1.7815 H       
  51 H51           -1.0406    12.2913     0.9836 H       
@<TRIPOS>BOND
   1    1    2 2
   2    1    3 1
   3    1   11 1
   4    3    4 ar
   5    3    8 ar
   6    4    5 ar
   7    4    9 1
   8    5    6 ar
   9    5   29 1
  10    6    7 ar
  11    6   30 1
  12    7    8 ar
  13    7   31 1
  14    8   32 1
  15   10   11 ar
  16   10   15 ar
  17   10   16 1
  18   11   12 ar
  19   12   13 ar
  20   12   33 1
  21   13   14 ar
  22   13   20 1
  23   14   15 ar
  24   14   34 1
  25   16   17 1
  26   16   35 1
  27   17   18 1
  28   17   36 1
  29   17   37 1
  30   18   19 1
  31   18   38 1
  32   18   39 1
  33   19   40 1
  34   19   41 1
  35   19   42 1
  36   20   21 ar
  37   20   25 ar
  38   21   22 ar
  39   21   43 1
  40   22   23 ar
  41   22   44 1
  42   23   24 ar
  43   23   26 1
  44   24   25 ar
  45   24   45 1
  46   25   46 1
  47   26   27 1
  48   27   28 1
  49   27   47 1
  50   27   48 1
  51   28   49 1
  52   28   50 1
  53   28   51 1

#	End of record

