#	Name: ASD01148420
#	Creating user name:	WinNT
#	Creation time:	15. 06. 2019 19:02

#	Modifying user name:	WinNT
#	Modification time:	15. 06. 2019 19:02

#	Program:	/corina/corina34_cracker 3.40 0067  02.08.2006

@<TRIPOS>MOLECULE
ASD01148420
  61   64    0    0    0
SMALL
NO_CHARGES


@<TRIPOS>ATOM
   1 C1            -0.0168     1.5738    -0.1084 C.ar    
   2 C2             0.0148     0.1913    -0.1462 C.ar    
   3 C3            -1.1663    -0.5270    -0.1474 C.ar    
   4 C4            -2.3786     0.1359    -0.1108 C.ar    
   5 C5            -2.4108     1.5176    -0.0730 C.ar    
   6 C6            -1.2307     2.2366    -0.0665 C.ar    
   7 C7            -3.7330     2.2395    -0.0332 C.3     
   8 O8            -4.7259     1.4600     0.6641 O.3     
   9 C9            -3.6466     3.5050     0.8531 C.3     
  10 C10           -4.1246     2.9973     2.2002 C.2     
  11 N11           -4.7087     1.8602     2.0200 N.2     
  12 C12           -3.9516     3.6852     3.4947 C.ar    
  13 C13           -4.4429     3.1031     4.6664 C.ar    
  14 C14           -3.2918     4.9154     3.5493 C.ar    
  15 C15           -3.1304     5.5570     4.7565 C.ar    
  16 C16           -3.6266     4.9778     5.9272 C.ar    
  17 C17           -4.2816     3.7445     5.8733 C.ar    
  18 C18           -3.4535     5.6661     7.2226 C.2     
  19 O19           -4.4249     6.0713     7.8299 O.2     
  20 N20           -2.2181     5.8448     7.7309 N.am    
  21 C21           -4.8172     3.1199     7.1359 C.3     
  22 C22           -4.2050     2.5904    -1.4456 C.3     
  23 F23           -4.3398     1.4180    -2.1969 F       
  24 F24           -5.4399     3.2441    -1.3757 F       
  25 F25           -3.2668     3.4299    -2.0557 F       
  26 Cl26           1.4661     2.4765    -0.1063 Cl      
  27 C27           -2.0345     6.6413     8.9467 C.3     
  28 C28           -2.1274     5.7440    10.1539 C.ar    
  29 N29           -3.3090     5.4610    10.6660 N.ar    
  30 C30           -1.1517     5.2908     7.1208 C.2     
  31 C31           -3.4386     4.6807    11.7213 C.ar    
  32 C32           -2.3293     4.1282    12.3324 C.ar    
  33 C33           -1.0695     4.4032    11.8221 C.ar    
  34 C34           -0.9734     5.2227    10.7081 C.ar    
  35 O35           -1.2925     4.7022     6.0676 O.2     
  36 O36            0.0693     5.3896     7.6785 O.3     
  37 C37            1.1717     4.7690     6.9659 C.3     
  38 C38           -1.1320    -2.0330    -0.1891 C.3     
  39 F39            0.1970    -2.4685    -0.2217 F       
  40 F40           -1.7629    -2.5455     0.9496 F       
  41 F41           -1.7985    -2.4831    -1.3338 F       
  42 H42            0.9620    -0.3267    -0.1751 H       
  43 H43           -3.3011    -0.4257    -0.1121 H       
  44 H44           -1.2560     3.3159    -0.0370 H       
  45 H45           -2.6192     3.8632     0.9170 H       
  46 H46           -4.3073     4.2863     0.4775 H       
  47 H47           -4.9494     2.1502     4.6247 H       
  48 H48           -2.9079     5.3629     2.6444 H       
  49 H49           -2.6200     6.5078     4.7988 H       
  50 H50           -5.8090     3.5199     7.3467 H       
  51 H51           -4.8808     2.0393     7.0081 H       
  52 H52           -4.1491     3.3489     7.9662 H       
  53 H53           -1.0550     7.1190     8.9236 H       
  54 H54           -2.8101     7.4052     9.0012 H       
  55 H55           -4.4232     4.4714    12.1127 H       
  56 H56           -2.4418     3.4905    13.1968 H       
  57 H57           -0.1846     3.9856    12.2792 H       
  58 H58           -0.0085     5.4577    10.2837 H       
  59 H59            0.9823     3.7006     6.8631 H       
  60 H60            1.2641     5.2185     5.9772 H       
  61 H61            2.0963     4.9222     7.5225 H       
@<TRIPOS>BOND
   1    1    2 ar
   2    1   26 1
   3    1    6 ar
   4    2    3 ar
   5    2   42 1
   6    3    4 ar
   7    3   38 1
   8    4    5 ar
   9    4   43 1
  10    5    6 ar
  11    5    7 1
  12    6   44 1
  13    7    8 1
  14    7    9 1
  15    7   22 1
  16    8   11 1
  17    9   10 1
  18    9   45 1
  19    9   46 1
  20   10   11 2
  21   10   12 1
  22   12   13 ar
  23   12   14 ar
  24   13   17 ar
  25   13   47 1
  26   14   15 ar
  27   14   48 1
  28   15   16 ar
  29   15   49 1
  30   16   17 ar
  31   16   18 1
  32   17   21 1
  33   18   19 2
  34   18   20 am
  35   20   27 1
  36   20   30 am
  37   21   50 1
  38   21   51 1
  39   21   52 1
  40   22   23 1
  41   22   24 1
  42   22   25 1
  43   27   28 1
  44   27   53 1
  45   27   54 1
  46   28   29 ar
  47   28   34 ar
  48   29   31 ar
  49   30   35 2
  50   30   36 1
  51   31   32 ar
  52   31   55 1
  53   32   33 ar
  54   32   56 1
  55   33   34 ar
  56   33   57 1
  57   34   58 1
  58   36   37 1
  59   37   59 1
  60   37   60 1
  61   37   61 1
  62   38   39 1
  63   38   40 1
  64   38   41 1

#	End of record

