#	Name: ASD01120120
#	Creating user name:	WinNT
#	Creation time:	15. 06. 2019 18:59

#	Modifying user name:	WinNT
#	Modification time:	15. 06. 2019 18:59

#	Program:	/corina/corina34_cracker 3.40 0067  02.08.2006

@<TRIPOS>MOLECULE
ASD01120120
  33   35    0    0    0
SMALL
NO_CHARGES


@<TRIPOS>ATOM
   1 C1            -0.0122     1.3847     0.0912 C.ar    
   2 C2             0.0822     0.1813    -0.5865 C.ar    
   3 C3             1.2837    -0.4951    -0.6317 C.ar    
   4 C4             2.4037     0.0351     0.0065 C.ar    
   5 C5             2.3032     1.2475     0.6877 C.ar    
   6 C6             1.0974     1.9157     0.7269 C.ar    
   7 N7             3.6135    -0.6410    -0.0356 N.pl3   
   8 C8             4.7614     0.0444    -0.1441 C.2     
   9 N9             5.9582    -0.4946    -0.0730 N.2     
  10 C10            6.9748     0.3097    -0.1981 C.2     
  11 C11            6.5708     1.7148    -0.4020 C.2     
  12 S12            4.8617     1.7789    -0.4076 S.3     
  13 C13            8.3254    -0.1185    -0.1443 C.ar    
  14 C14            8.6293    -1.4826     0.0538 C.ar    
  15 C15            9.9281    -1.8868     0.1040 C.ar    
  16 C16           10.9603    -0.9540    -0.0397 C.ar    
  17 C17           10.6664     0.3994    -0.2358 C.ar    
  18 C18            9.3722     0.8165    -0.2943 C.ar    
  19 O19           12.2492    -1.3626     0.0117 O.3     
  20 N20           -1.1080    -0.3808    -1.2633 N.pl3   
  21 O21           -2.2557     0.2638    -1.2205 O.2     
  22 O22           -1.0194    -1.5256    -1.9084 O.2     
  23 H23           -0.9535     1.9133     0.1205 H       
  24 H24            1.3563    -1.4341    -1.1604 H       
  25 H25            3.1680     1.6624     1.1841 H       
  26 H26            1.0186     2.8551     1.2540 H       
  27 H27            3.6298    -1.6096     0.0135 H       
  28 H28            7.2377     2.5546    -0.5296 H       
  29 H29            7.8333    -2.2039     0.1656 H       
  30 H30           10.1621    -2.9302     0.2554 H       
  31 H31           11.4684     1.1144    -0.3452 H       
  32 H32            9.1466     1.8617    -0.4461 H       
  33 H33           12.6181    -1.6096    -0.8474 H       
@<TRIPOS>BOND
   1    1    2 ar
   2    1    6 ar
   3    1   23 1
   4    2    3 ar
   5    2   20 1
   6    3    4 ar
   7    3   24 1
   8    4    5 ar
   9    4    7 1
  10    5    6 ar
  11    5   25 1
  12    6   26 1
  13    7    8 1
  14    7   27 1
  15    8    9 2
  16    8   12 1
  17    9   10 1
  18   10   11 2
  19   10   13 1
  20   11   12 1
  21   11   28 1
  22   13   14 ar
  23   13   18 ar
  24   14   15 ar
  25   14   29 1
  26   15   16 ar
  27   15   30 1
  28   16   17 ar
  29   16   19 1
  30   17   18 ar
  31   17   31 1
  32   18   32 1
  33   19   33 1
  34   20   21 2
  35   20   22 2

#	End of record

