#	Name: ASD03091218
#	Creating user name:	WinNT
#	Creation time:	15. 06. 2019 20:30

#	Modifying user name:	WinNT
#	Modification time:	15. 06. 2019 20:30

#	Program:	/corina/corina34_cracker 3.40 0067  02.08.2006

@<TRIPOS>MOLECULE
ASD03091218
  65   70    0    0    0
SMALL
NO_CHARGES


@<TRIPOS>ATOM
   1 N1             0.2101     1.2871     0.1936 N.2     
   2 C2             0.2022    -0.0201     0.2254 C.2     
   3 N3             1.3141    -0.7801    -0.0189 N.am    
   4 C4             2.4964    -0.1896    -0.3112 C.2     
   5 C5             2.5287     1.2800    -0.3529 C.ar    
   6 C6             3.6969     1.9803    -0.6449 C.ar    
   7 C7             3.6700     3.3645    -0.6712 C.ar    
   8 C8             2.4857     4.0530    -0.4077 C.ar    
   9 C9             1.3331     3.3804    -0.1201 C.ar    
  10 C10            1.3311     1.9824    -0.0866 C.ar    
  11 O11            3.4951    -0.8500    -0.5307 O.2     
  12 C12            1.2240    -2.2412     0.0368 C.3     
  13 C13            0.7509    -4.8690    -2.7360 C.3     
  14 C14            1.0201    -4.3257    -1.3302 C.3     
  15 C15            1.0338    -2.7947    -1.3769 C.3     
  16 C16           -0.2998    -2.3003    -1.9456 C.3     
  17 C17           -0.5181    -2.9218    -3.3276 C.3     
  18 O18           -0.4888    -4.3463    -3.2178 O.3     
  19 C19           -1.0669    -0.7093     0.5404 C.ar    
  20 C20           -1.1213    -1.6355     1.5834 C.ar    
  21 C21           -2.3099    -2.2757     1.8721 C.ar    
  22 C22           -3.4459    -2.0003     1.1294 C.ar    
  23 C23           -3.3975    -1.0838     0.0946 C.ar    
  24 C24           -2.2172    -0.4326    -0.2000 C.ar    
  25 Cl25          -2.3805    -3.4285     3.1682 Cl      
  26 N26            7.3144     4.7558    -2.4361 N.3     
  27 C27            7.3015     3.9206    -1.2255 C.3     
  28 C28            5.9837     3.1713    -1.1038 C.3     
  29 N29            4.8367     4.0763    -0.9631 N.3     
  30 C30            4.6677     4.8905    -2.1748 C.3     
  31 C31            5.3763     6.2278    -2.0189 C.3     
  32 C32            6.8854     6.1229    -2.1080 C.3     
  33 C33            6.6359     4.2151    -3.5945 C.3     
  34 C34            5.1362     4.0942    -3.3790 C.3     
  35 H35            4.6148     1.4488    -0.8484 H       
  36 H36            2.4806     5.1327    -0.4312 H       
  37 H37            0.4240     3.9273     0.0818 H       
  38 H38            2.1412    -2.6458     0.4649 H       
  39 H39            0.3754    -2.5296     0.6571 H       
  40 H40            1.5573    -4.5656    -3.4036 H       
  41 H41            0.6975    -5.9571    -2.7011 H       
  42 H42            0.2352    -4.6625    -0.6530 H       
  43 H43            1.9861    -4.6881    -0.9786 H       
  44 H44            1.8511    -2.4566    -2.0139 H       
  45 H45           -1.1114    -2.5962    -1.2808 H       
  46 H46           -0.2778    -1.2141    -2.0340 H       
  47 H47           -1.4856    -2.6072    -3.7189 H       
  48 H48            0.2717    -2.5929    -4.0029 H       
  49 H49           -0.2357    -1.8511     2.1627 H       
  50 H50           -4.3735    -2.5035     1.3590 H       
  51 H51           -4.2868    -0.8739    -0.4812 H       
  52 H52           -2.1825     0.2866    -1.0050 H       
  53 H53            8.1197     3.2022    -1.2762 H       
  54 H54            7.4357     4.5555    -0.3498 H       
  55 H55            5.8426     2.5583    -1.9940 H       
  56 H56            6.0278     2.5190    -0.2316 H       
  57 H57            3.6031     5.0847    -2.3047 H       
  58 H58            5.0260     6.9020    -2.8005 H       
  59 H59            5.1120     6.6524    -1.0505 H       
  60 H60            7.3193     6.4120    -1.1508 H       
  61 H61            7.2444     6.8035    -2.8801 H       
  62 H62            6.8189     4.8679    -4.4480 H       
  63 H63            7.0423     3.2277    -3.8133 H       
  64 H64            4.8833     3.0445    -3.2298 H       
  65 H65            4.6202     4.4585    -4.2673 H       
@<TRIPOS>BOND
   1    1    2 2
   2    1   10 1
   3    2    3 1
   4    2   19 1
   5    3    4 am
   6    3   12 1
   7    4    5 1
   8    4   11 2
   9    5    6 ar
  10    5   10 ar
  11    6    7 ar
  12    6   35 1
  13    7    8 ar
  14    7   29 1
  15    8    9 ar
  16    8   36 1
  17    9   10 ar
  18    9   37 1
  19   12   15 1
  20   12   38 1
  21   12   39 1
  22   13   14 1
  23   13   18 1
  24   13   40 1
  25   13   41 1
  26   14   15 1
  27   14   42 1
  28   14   43 1
  29   15   16 1
  30   15   44 1
  31   16   17 1
  32   16   45 1
  33   16   46 1
  34   17   18 1
  35   17   47 1
  36   17   48 1
  37   19   20 ar
  38   19   24 ar
  39   20   21 ar
  40   20   49 1
  41   21   22 ar
  42   21   25 1
  43   22   23 ar
  44   22   50 1
  45   23   24 ar
  46   23   51 1
  47   24   52 1
  48   26   27 1
  49   26   32 1
  50   26   33 1
  51   27   28 1
  52   27   53 1
  53   27   54 1
  54   28   29 1
  55   28   55 1
  56   28   56 1
  57   29   30 1
  58   30   31 1
  59   30   34 1
  60   30   57 1
  61   31   32 1
  62   31   58 1
  63   31   59 1
  64   32   60 1
  65   32   61 1
  66   33   34 1
  67   33   62 1
  68   33   63 1
  69   34   64 1
  70   34   65 1

#	End of record

