#	Name: ASD04910249
#	Creating user name:	WinNT
#	Creation time:	15. 06. 2019 20:55

#	Modifying user name:	WinNT
#	Modification time:	15. 06. 2019 20:55

#	Program:	/corina/corina34_cracker 3.40 0067  02.08.2006

@<TRIPOS>MOLECULE
ASD04910249
  32   33    0    0    0
SMALL
NO_CHARGES


@<TRIPOS>ATOM
   1 C1            -0.0184     1.5028     0.0103 C.2     
   2 C2             0.0021    -0.0041     0.0020 C.3     
   3 C3             1.4513    -0.4944    -0.0145 C.3     
   4 C4             1.4720    -2.0242    -0.0229 C.3     
   5 O5             1.0236     2.1234     0.0037 O.2     
   6 C6            -2.5092     1.5152     0.0222 C.ar    
   7 C7            -1.3008     2.2201     0.0203 C.ar    
   8 C8            -1.3327     3.6245     0.0285 C.ar    
   9 C9            -2.5616     4.2515     0.0382 C.ar    
  10 C10           -3.7198     3.4796     0.0395 C.ar    
  11 N11           -3.6579     2.1559     0.0320 N.ar    
  12 N12           -4.9639     4.1086     0.0492 N.pl3   
  13 N13           -5.1900     5.4912     0.0578 N.2     
  14 C14           -6.4819     5.6951     0.0651 C.2     
  15 C15           -7.1252     4.4515     0.0614 C.2     
  16 C16           -6.1743     3.4899     0.0462 C.2     
  17 C17           -8.6149     4.2245     0.0680 C.3     
  18 F18           -9.2746     5.4582     0.0780 F       
  19 F19           -8.9826     3.5083    -1.0762 F       
  20 F20           -8.9706     3.4962     1.2083 F       
  21 H21           -0.4983    -0.3791     0.8948 H       
  22 H22           -0.5153    -0.3696    -0.8850 H       
  23 H23            1.9516    -0.1193    -0.9073 H       
  24 H24            1.9686    -0.1289     0.8726 H       
  25 H25            0.9547    -2.3897    -0.9099 H       
  26 H26            2.5045    -2.3735    -0.0346 H       
  27 H27            0.9717    -2.3993     0.8699 H       
  28 H28           -2.4989     0.4353     0.0114 H       
  29 H29           -0.4181     4.1990     0.0277 H       
  30 H30           -2.6243     5.3297     0.0451 H       
  31 H31           -6.9694     6.6587     0.0730 H       
  32 H32           -6.3456     2.4237     0.0361 H       
@<TRIPOS>BOND
   1    1    2 1
   2    1    5 2
   3    1    7 1
   4    2    3 1
   5    2   21 1
   6    2   22 1
   7    3    4 1
   8    3   23 1
   9    3   24 1
  10    4   25 1
  11    4   26 1
  12    4   27 1
  13    6    7 ar
  14    6   11 ar
  15    6   28 1
  16    7    8 ar
  17    8    9 ar
  18    8   29 1
  19    9   10 ar
  20    9   30 1
  21   10   11 ar
  22   10   12 1
  23   12   13 1
  24   12   16 1
  25   13   14 2
  26   14   15 1
  27   14   31 1
  28   15   16 2
  29   15   17 1
  30   16   32 1
  31   17   18 1
  32   17   19 1
  33   17   20 1

#	End of record

