#	Name: ASD03091224
#	Creating user name:	WinNT
#	Creation time:	15. 06. 2019 20:30

#	Modifying user name:	WinNT
#	Modification time:	15. 06. 2019 20:30

#	Program:	/corina/corina34_cracker 3.40 0067  02.08.2006

@<TRIPOS>MOLECULE
ASD03091224
  57   61    0    0    0
SMALL
NO_CHARGES


@<TRIPOS>ATOM
   1 N1             0.0287     1.3462     0.3126 N.2     
   2 C2            -0.0743     0.0660     0.0666 C.2     
   3 N3             1.0024    -0.7278    -0.2239 N.am    
   4 C4             2.2486    -0.2018    -0.2688 C.2     
   5 C5             2.3882     1.2364     0.0041 C.ar    
   6 C6             3.6281     1.8707    -0.0187 C.ar    
   7 C7             3.7013     3.2281     0.2455 C.ar    
   8 C8             2.5457     3.9549     0.5325 C.ar    
   9 C9             1.3237     3.3470     0.5586 C.ar    
  10 C10            1.2202     1.9775     0.2955 C.ar    
  11 O11            3.2172    -0.8931    -0.5252 O.2     
  12 C12            0.8046    -2.1553    -0.4871 C.3     
  13 C13            1.1871    -2.4645    -1.9359 C.3     
  14 C14            1.6844    -2.9751     0.4588 C.3     
  15 C15           -1.4160    -0.5529     0.1045 C.ar    
  16 C16           -2.2527    -0.3458     1.2025 C.ar    
  17 C17           -3.5047    -0.9269     1.2314 C.ar    
  18 C18           -3.9303    -1.7135     0.1739 C.ar    
  19 C19           -3.1051    -1.9224    -0.9163 C.ar    
  20 C20           -1.8540    -1.3421    -0.9601 C.ar    
  21 Cl21          -4.5471    -0.6716     2.5958 Cl      
  22 N22            7.6021     4.6237    -0.8353 N.3     
  23 C23            7.4015     3.5484     0.1480 C.3     
  24 C24            6.0277     2.9178    -0.0181 C.3     
  25 N25            4.9406     3.8737     0.2250 N.3     
  26 C26            4.9593     4.9459    -0.7799 C.3     
  27 C27            5.7422     6.1438    -0.2634 C.3     
  28 C28            7.2407     5.9198    -0.2433 C.3     
  29 C29            7.0120     4.4163    -2.1403 C.3     
  30 C30            5.4933     4.3925    -2.0884 C.3     
  31 H31            4.5238     1.3093    -0.2401 H       
  32 H32            2.6189     5.0128     0.7373 H       
  33 H33            0.4380     3.9231     0.7824 H       
  34 H34           -0.2420    -2.4131    -0.3248 H       
  35 H35            2.2337    -2.2067    -2.0983 H       
  36 H36            1.0400    -3.5266    -2.1318 H       
  37 H37            0.5603    -1.8805    -2.6098 H       
  38 H38            1.4119    -2.7548     1.4909 H       
  39 H39            1.5373    -4.0372     0.2629 H       
  40 H40            2.7310    -2.7173     0.2964 H       
  41 H41           -1.9213     0.2673     2.0276 H       
  42 H42           -4.9105    -2.1661     0.2009 H       
  43 H43           -3.4427    -2.5375    -1.7374 H       
  44 H44           -1.2130    -1.5021    -1.8145 H       
  45 H45            8.1665     2.7850     0.0063 H       
  46 H46            7.4883     3.9604     1.1534 H       
  47 H47            5.9372     2.5310    -1.0331 H       
  48 H48            5.9325     2.0891     0.6834 H       
  49 H49            3.9310     5.2629    -0.9537 H       
  50 H50            5.5257     7.0029    -0.8985 H       
  51 H51            5.4088     6.3687     0.7497 H       
  52 H52            7.5912     5.9499     0.7884 H       
  53 H53            7.7272     6.7162    -0.8065 H       
  54 H54            7.3305     5.2202    -2.8041 H       
  55 H55            7.3669     3.4672    -2.5419 H       
  56 H56            5.1509     3.3642    -2.2041 H       
  57 H57            5.1012     4.9895    -2.9118 H       
@<TRIPOS>BOND
   1    1    2 2
   2    1   10 1
   3    2    3 1
   4    2   15 1
   5    3    4 am
   6    3   12 1
   7    4    5 1
   8    4   11 2
   9    5    6 ar
  10    5   10 ar
  11    6    7 ar
  12    6   31 1
  13    7    8 ar
  14    7   25 1
  15    8    9 ar
  16    8   32 1
  17    9   10 ar
  18    9   33 1
  19   12   13 1
  20   12   14 1
  21   12   34 1
  22   13   35 1
  23   13   36 1
  24   13   37 1
  25   14   38 1
  26   14   39 1
  27   14   40 1
  28   15   16 ar
  29   15   20 ar
  30   16   17 ar
  31   16   41 1
  32   17   18 ar
  33   17   21 1
  34   18   19 ar
  35   18   42 1
  36   19   20 ar
  37   19   43 1
  38   20   44 1
  39   22   23 1
  40   22   28 1
  41   22   29 1
  42   23   24 1
  43   23   45 1
  44   23   46 1
  45   24   25 1
  46   24   47 1
  47   24   48 1
  48   25   26 1
  49   26   27 1
  50   26   30 1
  51   26   49 1
  52   27   28 1
  53   27   50 1
  54   27   51 1
  55   28   52 1
  56   28   53 1
  57   29   30 1
  58   29   54 1
  59   29   55 1
  60   30   56 1
  61   30   57 1

#	End of record

