#	Name: ASD01813014
#	Creating user name:	WinNT
#	Creation time:	15. 06. 2019 19:29

#	Modifying user name:	WinNT
#	Modification time:	15. 06. 2019 19:29

#	Program:	/corina/corina34_cracker 3.40 0067  02.08.2006

@<TRIPOS>MOLECULE
ASD01813014
  53   57    0    0    0
SMALL
NO_CHARGES


@<TRIPOS>ATOM
   1 C1             0.0056     1.3181    -0.2634 C.ar    
   2 N2             0.0356     0.0083    -0.3903 N.ar    
   3 C3             1.1680    -0.6729    -0.3894 C.ar    
   4 C4             2.3742    -0.0283    -0.2533 C.ar    
   5 C5             2.4009     1.3638    -0.1149 C.ar    
   6 C6             1.1796     2.0505    -0.1210 C.ar    
   7 C7             3.8091    -0.4855    -0.2121 C.3     
   8 N8             4.6220     0.7253    -0.0444 N.am    
   9 C9             3.8037     1.7915     0.0113 C.2     
  10 C10            6.0835     0.7656     0.0482 C.3     
  11 C11            6.6703     0.9175    -1.3315 C.ar    
  12 O12            1.1429     3.4002     0.0090 O.3     
  13 O13            4.1701     2.9427     0.1460 O.2     
  14 C14            6.8984     2.1802    -1.8481 C.ar    
  15 C15            7.4360     2.3251    -3.1111 C.ar    
  16 C16            7.7490     1.1966    -3.8658 C.ar    
  17 C17            7.5172    -0.0728    -3.3405 C.ar    
  18 C18            6.9841    -0.2062    -2.0744 C.ar    
  19 C19           -0.0649     4.0174    -0.0812 C.ar    
  20 C20           -0.8676     4.1446     1.0462 C.ar    
  21 C21           -0.4959     4.5262    -1.2968 C.ar    
  22 C22           -1.7241     5.1538    -1.3860 C.ar    
  23 C23           -2.5235     5.2754    -0.2649 C.ar    
  24 C24           -2.0955     4.7736     0.9507 C.ar    
  25 F25           -0.4492     3.6543     2.2335 F       
  26 C26           -3.8615     5.9612    -0.3663 C.3     
  27 F27           -4.8464     5.0182    -0.6793 F       
  28 F28           -4.1685     6.5677     0.8565 F       
  29 F29           -3.8119     6.9345    -1.3700 F       
  30 N30            8.5928     2.4832    -5.8322 N.2     
  31 C31            8.3269     1.3462    -5.2247 C.2     
  32 C32            8.6876     0.2966    -6.0919 C.2     
  33 C33            9.1732     0.8455    -7.2267 C.2     
  34 N34            9.1261     2.1885    -7.0934 N.pl3   
  35 C35            9.5571     3.1673    -8.0946 C.3     
  36 H36           -0.9442     1.8321    -0.2744 H       
  37 H37            1.1453    -1.7473    -0.4963 H       
  38 H38            3.9633    -1.1598     0.6303 H       
  39 H39            4.0698    -0.9853    -1.1450 H       
  40 H40            6.3852     1.6112     0.6664 H       
  41 H41            6.4449    -0.1597     0.4968 H       
  42 H42            6.6550     3.0543    -1.2624 H       
  43 H43            7.6134     3.3114    -3.5136 H       
  44 H44            7.7580    -0.9509    -3.9214 H       
  45 H45            6.8078    -1.1898    -1.6647 H       
  46 H46            0.1279     4.4326    -2.1734 H       
  47 H47           -2.0595     5.5501    -2.3330 H       
  48 H48           -2.7204     4.8732     1.8259 H       
  49 H49            8.5934    -0.7593    -5.8859 H       
  50 H50            9.5354     0.3053    -8.0888 H       
  51 H51           10.6101     3.4038    -7.9417 H       
  52 H52            9.4193     2.7511    -9.0925 H       
  53 H53            8.9626     4.0754    -7.9944 H       
@<TRIPOS>BOND
   1    1    2 ar
   2    1    6 ar
   3    1   36 1
   4    2    3 ar
   5    3    4 ar
   6    3   37 1
   7    4    7 1
   8    4    5 ar
   9    5    6 ar
  10    5    9 1
  11    6   12 1
  12    7    8 1
  13    7   38 1
  14    7   39 1
  15    8    9 am
  16    8   10 1
  17    9   13 2
  18   10   11 1
  19   10   40 1
  20   10   41 1
  21   11   14 ar
  22   11   18 ar
  23   12   19 1
  24   14   15 ar
  25   14   42 1
  26   15   16 ar
  27   15   43 1
  28   16   17 ar
  29   16   31 1
  30   17   18 ar
  31   17   44 1
  32   18   45 1
  33   19   21 ar
  34   19   20 ar
  35   20   24 ar
  36   20   25 1
  37   21   22 ar
  38   21   46 1
  39   22   23 ar
  40   22   47 1
  41   23   24 ar
  42   23   26 1
  43   24   48 1
  44   26   27 1
  45   26   28 1
  46   26   29 1
  47   30   31 2
  48   30   34 1
  49   31   32 1
  50   32   33 2
  51   32   49 1
  52   33   34 1
  53   33   50 1
  54   34   35 1
  55   35   51 1
  56   35   52 1
  57   35   53 1

#	End of record

