#	Name: ASD01810906
#	Creating user name:	WinNT
#	Creation time:	15. 06. 2019 19:25

#	Modifying user name:	WinNT
#	Modification time:	15. 06. 2019 19:25

#	Program:	/corina/corina34_cracker 3.40 0067  02.08.2006

@<TRIPOS>MOLECULE
ASD01810906
  43   47    0    0    0
SMALL
NO_CHARGES


@<TRIPOS>ATOM
   1 C1            -0.0168     1.3872     0.0097 C.ar    
   2 C2             0.0021    -0.0041     0.0020 C.ar    
   3 C3             1.2152    -0.6854    -0.0128 C.ar    
   4 C4             2.4030     0.0179    -0.0204 C.ar    
   5 C5             2.3864     1.4134    -0.0132 C.ar    
   6 C6             1.1686     2.0946     0.0022 C.ar    
   7 C7             3.6587     2.1697    -0.0209 C.ar    
   8 C8             4.6631     1.8695     0.8782 C.ar    
   9 C9             5.8651     2.5722     0.8821 C.ar    
  10 C10            6.1241     3.5827     0.0159 C.ar    
  11 C11            3.8817     3.2480    -0.9856 C.ar    
  12 N12            3.8844     4.7884    -2.5540 N.pl3   
  13 C13            3.1457     3.8138    -2.0033 C.2     
  14 C14            5.1637     3.9683    -0.9432 C.ar    
  15 N15            5.1160     4.8828    -1.8952 N.2     
  16 C16            3.4611     5.6355    -3.6717 C.3     
  17 F17            1.2306    -2.0363    -0.0193 F       
  18 F18           -1.1961     2.0462     0.0188 F       
  19 N19           -1.2020    -0.7199     0.0097 N.am    
  20 N20           -2.9077    -1.7194    -1.2432 N.2     
  21 C21           -3.5702    -2.1249    -0.1313 C.ar    
  22 C22           -3.0333    -1.8141     1.1383 C.ar    
  23 C23           -1.7701    -1.0640     1.1889 C.2     
  24 C24           -1.7927    -1.0580    -1.1680 C.2     
  25 C25           -4.7695    -2.8352    -0.2115 C.ar    
  26 C26           -5.4090    -3.2265     0.9435 C.ar    
  27 C27           -4.8764    -2.9231     2.1894 C.ar    
  28 C28           -3.6984    -2.2160     2.2947 C.ar    
  29 O29           -1.2547    -0.7644     2.2504 O.2     
  30 H30            3.3443    -0.5113    -0.0316 H       
  31 H31            1.1534     3.1745     0.0081 H       
  32 H32            4.5131     1.0738     1.5929 H       
  33 H33            6.6213     2.3019     1.6043 H       
  34 H34            7.0728     4.0967     0.0606 H       
  35 H35            2.1499     3.5239    -2.3045 H       
  36 H36            2.9581     6.5221    -3.2855 H       
  37 H37            4.3343     5.9364    -4.2506 H       
  38 H38            2.7759     5.0784    -4.3106 H       
  39 H39           -1.3100    -0.7609    -2.0873 H       
  40 H40           -5.1938    -3.0763    -1.1750 H       
  41 H41           -6.3366    -3.7758     0.8795 H       
  42 H42           -5.3932    -3.2385     3.0837 H       
  43 H43           -3.2889    -1.9829     3.2665 H       
@<TRIPOS>BOND
   1    1    2 ar
   2    1    6 ar
   3    1   18 1
   4    2    3 ar
   5    2   19 1
   6    3    4 ar
   7    3   17 1
   8    4    5 ar
   9    4   30 1
  10    5    6 ar
  11    5    7 1
  12    6   31 1
  13    7    8 ar
  14    7   11 ar
  15    8    9 ar
  16    8   32 1
  17    9   10 ar
  18    9   33 1
  19   10   14 ar
  20   10   34 1
  21   11   14 ar
  22   11   13 2
  23   12   13 1
  24   12   15 1
  25   12   16 1
  26   13   35 1
  27   14   15 2
  28   16   36 1
  29   16   37 1
  30   16   38 1
  31   19   24 1
  32   19   23 am
  33   20   21 1
  34   20   24 2
  35   21   22 ar
  36   21   25 ar
  37   22   23 1
  38   22   28 ar
  39   23   29 2
  40   24   39 1
  41   25   26 ar
  42   25   40 1
  43   26   27 ar
  44   26   41 1
  45   27   28 ar
  46   27   42 1
  47   28   43 1

#	End of record

