#	Name: ASD04230159
#	Creating user name:	WinNT
#	Creation time:	15. 06. 2019 20:48

#	Modifying user name:	WinNT
#	Modification time:	15. 06. 2019 20:48

#	Program:	/corina/corina34_cracker 3.40 0067  02.08.2006

@<TRIPOS>MOLECULE
ASD04230159
  64   68    0    0    0
SMALL
NO_CHARGES


@<TRIPOS>ATOM
   1 C1             1.5274     4.7632    -0.4873 C.ar    
   2 C2             2.4610     5.5910     0.1194 C.ar    
   3 C3             3.6884     5.1105     0.4755 C.ar    
   4 C4             4.0172     3.7717     0.2182 C.ar    
   5 C5             3.0630     2.9198    -0.3671 C.ar    
   6 C6             1.8192     3.4325    -0.7297 C.ar    
   7 C7             5.3027     3.2691     0.5482 C.2     
   8 C8             5.6421     2.0020     0.0928 C.2     
   9 C9             4.6450     1.2905    -0.7277 C.2     
  10 O10            3.3424     1.6078    -0.5559 O.3     
  11 C11            6.9439     1.3944     0.4156 C.2     
  12 N12            7.2443     0.1625    -0.0412 N.am    
  13 O13            7.7481     2.0042     1.0944 O.2     
  14 C14            8.5187    -0.3720     0.1750 C.ar    
  15 C15            8.6751    -1.7393     0.3685 C.ar    
  16 C16            9.9326    -2.2724     0.5821 C.ar    
  17 C17           11.0408    -1.4506     0.6050 C.ar    
  18 C18           10.8942    -0.0755     0.4117 C.ar    
  19 C19            9.6266     0.4616     0.1906 C.ar    
  20 C20           12.0799     0.8074     0.4357 C.2     
  21 O21            4.9840     0.4449    -1.5343 O.2     
  22 N22           13.2876     0.5043     1.0349 N.am    
  23 C23           14.1683     1.5569     0.8625 C.ar    
  24 C24           13.4948     2.5533     0.1325 C.ar    
  25 C25           12.1515     2.0351    -0.1311 C.2     
  26 C26           15.4840     1.7713     1.2543 C.ar    
  27 C27           16.1135     2.9531     0.9251 C.ar    
  28 C28           15.4457     3.9337     0.2053 C.ar    
  29 C29           14.1515     3.7436    -0.1905 C.ar    
  30 C30           13.5649    -0.6416     1.6879 C.2     
  31 O31           13.3290    -0.7370     3.0096 O.3     
  32 O32           14.0276    -1.5882     1.0837 O.2     
  33 C33           13.6518    -2.0009     3.6472 C.3     
  34 C34           15.1435    -2.2935     3.4737 C.3     
  35 C35           13.3181    -1.9199     5.1382 C.3     
  36 C36           12.8339    -3.1213     3.0017 C.3     
  37 O37            0.8951     2.6279    -1.3192 O.3     
  38 C38           -0.3578     3.2226    -1.6634 C.3     
  39 H39            0.5631     5.1597    -0.7687 H       
  40 H40            2.2148     6.6249     0.3113 H       
  41 H41            4.4055     5.7608     0.9544 H       
  42 H42            5.9956     3.8541     1.1349 H       
  43 H43            6.5768    -0.3534    -0.5198 H       
  44 H44            7.8114    -2.3874     0.3524 H       
  45 H45           10.0480    -3.3358     0.7319 H       
  46 H46           12.0214    -1.8708     0.7729 H       
  47 H47            9.5071     1.5243     0.0400 H       
  48 H48           11.3636     2.5397    -0.6705 H       
  49 H49           16.0121     1.0146     1.8154 H       
  50 H50           17.1362     3.1174     1.2308 H       
  51 H51           15.9527     4.8541    -0.0443 H       
  52 H52           13.6378     4.5111    -0.7504 H       
  53 H53           15.7262    -1.4953     3.9335 H       
  54 H54           15.3858    -3.2423     3.9523 H       
  55 H55           15.3812    -2.3513     2.4115 H       
  56 H56           12.2554    -1.7114     5.2618 H       
  57 H57           13.5604    -2.8687     5.6169 H       
  58 H58           13.9008    -1.1217     5.5981 H       
  59 H59           13.0716    -3.1791     1.9396 H       
  60 H60           13.0761    -4.0702     3.4804 H       
  61 H61           11.7711    -2.9129     3.1254 H       
  62 H62           -0.8366     3.6078    -0.7631 H       
  63 H63           -0.1914     4.0403    -2.3647 H       
  64 H64           -1.0011     2.4734    -2.1248 H       
@<TRIPOS>BOND
   1    1    2 ar
   2    1    6 ar
   3    1   39 1
   4    2    3 ar
   5    2   40 1
   6    3    4 ar
   7    3   41 1
   8    4    5 ar
   9    4    7 1
  10    5    6 ar
  11    5   10 1
  12    6   37 1
  13    7    8 2
  14    7   42 1
  15    8    9 1
  16    8   11 1
  17    9   10 1
  18    9   21 2
  19   11   12 am
  20   11   13 2
  21   12   14 1
  22   12   43 1
  23   14   15 ar
  24   14   19 ar
  25   15   16 ar
  26   15   44 1
  27   16   17 ar
  28   16   45 1
  29   17   18 ar
  30   17   46 1
  31   18   19 ar
  32   18   20 1
  33   19   47 1
  34   20   22 1
  35   20   25 2
  36   22   23 1
  37   22   30 am
  38   23   24 ar
  39   23   26 ar
  40   24   25 1
  41   24   29 ar
  42   25   48 1
  43   26   27 ar
  44   26   49 1
  45   27   28 ar
  46   27   50 1
  47   28   29 ar
  48   28   51 1
  49   29   52 1
  50   30   31 1
  51   30   32 2
  52   31   33 1
  53   33   34 1
  54   33   35 1
  55   33   36 1
  56   34   53 1
  57   34   54 1
  58   34   55 1
  59   35   56 1
  60   35   57 1
  61   35   58 1
  62   36   59 1
  63   36   60 1
  64   36   61 1
  65   37   38 1
  66   38   62 1
  67   38   63 1
  68   38   64 1

#	End of record

