#	Name: ASD01870422
#	Creating user name:	WinNT
#	Creation time:	15. 06. 2019 19:39

#	Modifying user name:	WinNT
#	Modification time:	15. 06. 2019 19:39

#	Program:	/corina/corina34_cracker 3.40 0067  02.08.2006

@<TRIPOS>MOLECULE
ASD01870422
  52   55    0    0    0
SMALL
NO_CHARGES


@<TRIPOS>ATOM
   1 N1            -0.2941     2.0048    -0.3653 N.am    
   2 C2            -0.0628     0.5651    -0.1948 C.3     
   3 C3             0.6637     2.9408    -0.5165 C.2     
   4 C4             0.2823     4.3893    -0.6826 C.3     
   5 O5             1.8326     2.6175    -0.5190 O.2     
   6 C6             1.4877     5.3331    -0.8439 C.3     
   7 N7             0.6948     6.0035    -1.8926 N.am    
   8 C8            -0.0836     4.7721    -2.1281 C.3     
   9 S9             0.6833     7.5261    -2.5437 S.o2    
  10 C10            1.8493     7.4344    -3.9303 C.3     
  11 C11            2.0226     8.8252    -4.5438 C.3     
  12 O12           -0.6451     7.6938    -3.0195 O.2     
  13 O13            1.2012     8.3530    -1.5106 O.2     
  14 C14            3.2019     6.9270    -3.4265 C.3     
  15 C15           -1.4348    -0.1294    -0.1292 C.3     
  16 C16           -2.4041     0.9243    -0.7547 C.3     
  17 C17           -1.7441     2.2574    -0.3501 C.3     
  18 C18           -1.4626    -1.2844    -1.1469 C.3     
  19 N19           -1.9549    -0.7441    -2.4255 N.3     
  20 C20           -2.1849     0.7059    -2.2679 C.3     
  21 C21           -1.0524    -0.9970    -3.4542 C.ar    
  22 C22           -0.3252    -2.1866    -3.4918 C.ar    
  23 C23            0.5591    -2.3988    -4.5284 C.ar    
  24 N24            0.7209    -1.4940    -5.4758 N.ar    
  25 C25            0.0517    -0.3563    -5.4756 C.ar    
  26 C26           -0.8559    -0.0700    -4.4777 C.ar    
  27 H27            0.5056     0.1800    -1.0414 H       
  28 H28            0.4857     0.3866     0.7301 H       
  29 H29           -0.4423     4.7256     0.0590 H       
  30 H30            1.6774     5.9568     0.0297 H       
  31 H31            2.3846     4.8401    -1.2189 H       
  32 H32            0.3516     4.1143    -2.8804 H       
  33 H33           -1.1486     4.9478    -2.2799 H       
  34 H34            1.4628     6.7498    -4.6853 H       
  35 H35            2.4091     9.5098    -3.7888 H       
  36 H36            2.7232     8.7701    -5.3770 H       
  37 H37            1.0589     9.1866    -4.9028 H       
  38 H38            3.5884     7.6116    -2.6715 H       
  39 H39            3.0785     5.9362    -2.9894 H       
  40 H40            3.9026     6.8719    -4.2597 H       
  41 H41           -1.7150    -0.4282     0.8809 H       
  42 H42           -3.4395     0.8270    -0.4280 H       
  43 H43           -2.0597     2.5450     0.6527 H       
  44 H44           -2.0022     3.0381    -1.0657 H       
  45 H45           -0.4576    -1.6855    -1.2779 H       
  46 H46           -2.1317    -2.0700    -0.7958 H       
  47 H47           -3.0707     1.0104    -2.8254 H       
  48 H48           -1.3134     1.2655    -2.6077 H       
  49 H49           -0.4526    -2.9309    -2.7197 H       
  50 H50            1.1267    -3.3168    -4.5655 H       
  51 H51            0.2139     0.3577    -6.2696 H       
  52 H52           -1.4004     0.8626    -4.4837 H       
@<TRIPOS>BOND
   1    1    2 1
   2    1    3 am
   3    1   17 1
   4    2   15 1
   5    2   27 1
   6    2   28 1
   7    3    4 1
   8    3    5 2
   9    4    6 1
  10    4    8 1
  11    4   29 1
  12    6    7 1
  13    6   30 1
  14    6   31 1
  15    7    8 1
  16    7    9 am
  17    8   32 1
  18    8   33 1
  19    9   10 1
  20    9   12 2
  21    9   13 2
  22   10   14 1
  23   10   11 1
  24   10   34 1
  25   11   35 1
  26   11   36 1
  27   11   37 1
  28   14   38 1
  29   14   39 1
  30   14   40 1
  31   15   16 1
  32   15   18 1
  33   15   41 1
  34   16   17 1
  35   16   20 1
  36   16   42 1
  37   17   43 1
  38   17   44 1
  39   18   19 1
  40   18   45 1
  41   18   46 1
  42   19   20 1
  43   19   21 1
  44   20   47 1
  45   20   48 1
  46   21   22 ar
  47   21   26 ar
  48   22   23 ar
  49   22   49 1
  50   23   24 ar
  51   23   50 1
  52   24   25 ar
  53   25   26 ar
  54   25   51 1
  55   26   52 1

#	End of record

