#	Name: ASD01812119
#	Creating user name:	WinNT
#	Creation time:	15. 06. 2019 19:28

#	Modifying user name:	WinNT
#	Modification time:	15. 06. 2019 19:28

#	Program:	/corina/corina34_cracker 3.40 0067  02.08.2006

@<TRIPOS>MOLECULE
ASD01812119
  60   64    0    0    0
SMALL
NO_CHARGES


@<TRIPOS>ATOM
   1 C1             0.0767     1.5371     0.4473 C.ar    
   2 C2             0.0283     0.1683     0.6327 C.ar    
   3 C3             1.1534    -0.6013     0.4106 C.ar    
   4 C4             2.3406    -0.0043    -0.0004 C.ar    
   5 C5             2.3879     1.3730    -0.1821 C.ar    
   6 C6             1.2528     2.1389     0.0409 C.ar    
   7 N7             3.4560    -0.8173    -0.2254 N.3     
   8 C8             4.7106    -0.0568    -0.1890 C.3     
   9 C9             4.5691     1.1659    -1.1047 C.3     
  10 O10            3.5331     1.9976    -0.5719 O.3     
  11 C11            3.4915    -1.9372     0.7246 C.3     
  12 C12            4.6396    -2.8510     0.3813 C.ar    
  13 C13            5.8520    -2.7097     1.0310 C.ar    
  14 C14            6.9060    -3.5460     0.7189 C.ar    
  15 C15            6.7472    -4.5292    -0.2484 C.ar    
  16 C16            5.5287    -4.6686    -0.8991 C.ar    
  17 C17            4.4768    -3.8327    -0.5788 C.ar    
  18 N18            7.8151    -5.3792    -0.5678 N.pl3   
  19 C19            9.8104    -6.2958    -0.5436 C.2     
  20 N20            9.0906    -5.3539     0.0111 N.2     
  21 C21            7.7948    -6.3727    -1.4850 C.2     
  22 C22            9.0172    -6.9531    -1.4904 C.2     
  23 C23            5.8680     1.9293    -1.1404 C.2     
  24 O24            5.9228     3.0542    -0.6904 O.2     
  25 N25            6.9687     1.3619    -1.6723 N.am    
  26 C26            8.2667     2.9925    -2.9520 C.3     
  27 C27            8.2313     2.1039    -1.7070 C.3     
  28 C28            9.4010     1.1185    -1.7504 C.3     
  29 C29           10.7197     1.8935    -1.7866 C.3     
  30 C30           10.7550     2.7821    -3.0316 C.3     
  31 C31            9.5854     3.7675    -2.9882 C.3     
  32 O32            9.3680     0.2886    -0.5876 O.3     
  33 H33           -0.8060     2.1361     0.6156 H       
  34 H34           -0.8908    -0.3002     0.9522 H       
  35 H35            1.1113    -1.6706     0.5568 H       
  36 H36            1.2883     3.2087    -0.1032 H       
  37 H37            4.9101     0.2713     0.8312 H       
  38 H38            5.5293    -0.6845    -0.5408 H       
  39 H39            4.3022     0.8438    -2.1113 H       
  40 H40            3.6235    -1.5519     1.7356 H       
  41 H41            2.5553    -2.4925     0.6667 H       
  42 H42            5.9750    -1.9444     1.7831 H       
  43 H43            7.8528    -3.4349     1.2264 H       
  44 H44            5.4023    -5.4323    -1.6522 H       
  45 H45            3.5286    -3.9409    -1.0844 H       
  46 H46           10.8389    -6.5273    -0.3091 H       
  47 H47            6.9539    -6.6529    -2.1019 H       
  48 H48            9.3262    -7.7778    -2.1155 H       
  49 H49            6.9248     0.4622    -2.0322 H       
  50 H50            8.1856     2.3715    -3.8441 H       
  51 H51            7.4334     3.6945    -2.9211 H       
  52 H52            8.3124     2.7250    -0.8149 H       
  53 H53            9.3199     0.4975    -2.6425 H       
  54 H54           10.8007     2.5146    -0.8945 H       
  55 H55           11.5529     1.1915    -1.8175 H       
  56 H56           11.6945     3.3342    -3.0573 H       
  57 H57           10.6740     2.1611    -3.9237 H       
  58 H58            9.6105     4.4006    -3.8751 H       
  59 H59            9.6664     4.3886    -2.0961 H       
  60 H60           10.0824    -0.3619    -0.5483 H       
@<TRIPOS>BOND
   1    1    2 ar
   2    1    6 ar
   3    1   33 1
   4    2    3 ar
   5    2   34 1
   6    3    4 ar
   7    3   35 1
   8    4    5 ar
   9    4    7 1
  10    5    6 ar
  11    5   10 1
  12    6   36 1
  13    7    8 1
  14    7   11 1
  15    8    9 1
  16    8   37 1
  17    8   38 1
  18    9   10 1
  19    9   23 1
  20    9   39 1
  21   11   12 1
  22   11   40 1
  23   11   41 1
  24   12   13 ar
  25   12   17 ar
  26   13   14 ar
  27   13   42 1
  28   14   15 ar
  29   14   43 1
  30   15   16 ar
  31   15   18 1
  32   16   17 ar
  33   16   44 1
  34   17   45 1
  35   18   21 1
  36   18   20 1
  37   19   20 2
  38   19   22 1
  39   19   46 1
  40   21   22 2
  41   21   47 1
  42   22   48 1
  43   23   24 2
  44   23   25 am
  45   25   27 1
  46   25   49 1
  47   26   27 1
  48   26   31 1
  49   26   50 1
  50   26   51 1
  51   27   28 1
  52   27   52 1
  53   28   29 1
  54   28   32 1
  55   28   53 1
  56   29   30 1
  57   29   54 1
  58   29   55 1
  59   30   31 1
  60   30   56 1
  61   30   57 1
  62   31   58 1
  63   31   59 1
  64   32   60 1

#	End of record

