#	Name: ASD02030392
#	Creating user name:	WinNT
#	Creation time:	15. 06. 2019 20:15

#	Modifying user name:	WinNT
#	Modification time:	15. 06. 2019 20:15

#	Program:	/corina/corina34_cracker 3.40 0067  02.08.2006

@<TRIPOS>MOLECULE
ASD02030392
  13   13    0    0    0
SMALL
NO_CHARGES


@<TRIPOS>ATOM
   1 C1            -0.0185     1.5130     0.0104 C.3     
   2 C2             0.0021    -0.0041     0.0020 C.2     
   3 N3             1.2445    -0.3910    -0.3490 N.am    
   4 O4             2.0824     0.7180    -0.6116 O.3     
   5 C5             1.4838     1.8777    -0.0020 C.3     
   6 O6            -0.9296    -0.7352     0.2635 O.2     
   7 N7            -0.6893     2.0306    -1.1897 N.3     
   8 H8            -0.4991     1.8874     0.9142 H       
   9 H9             1.5290    -1.3161    -0.4136 H       
  10 H10            1.6611     2.7674    -0.6063 H       
  11 H11            1.8565     2.0173     1.0127 H       
  12 H12           -1.6501     1.7248    -1.2272 H       
  13 H13           -0.6282     3.0369    -1.2324 H       
@<TRIPOS>BOND
   1    1    2 1
   2    1    5 1
   3    1    7 1
   4    1    8 1
   5    2    3 am
   6    2    6 2
   7    3    4 1
   8    3    9 1
   9    4    5 1
  10    5   10 1
  11    5   11 1
  12    7   12 1
  13    7   13 1

#	End of record

