#	Name: ASD09740409
#	Creating user name:	WinNT
#	Creation time:	15. 06. 2019 21:23

#	Modifying user name:	WinNT
#	Modification time:	15. 06. 2019 21:23

#	Program:	/corina/corina34_cracker 3.40 0067  02.08.2006

@<TRIPOS>MOLECULE
ASD09740409
  70   74    0    0    0
SMALL
NO_CHARGES


@<TRIPOS>ATOM
   1 N1            -0.4530     1.2734     1.7489 N.2     
   2 C2            -0.4480    -0.0352     1.8048 C.2     
   3 C3             0.6361     1.8894     2.1148 C.2     
   4 S4             1.8419     0.6994     2.5974 S.3     
   5 C5             0.7010    -0.5960     2.2409 C.2     
   6 C6             0.8289     3.3543     2.1227 C.ar    
   7 C7            -0.2043     4.1947     1.7163 C.ar    
   8 C8             2.0471     3.8970     2.5437 C.ar    
   9 C9             2.2322     5.2623     2.5534 C.ar    
  10 C10            1.2111     6.1093     2.1455 C.ar    
  11 C11           -0.0167     5.5763     1.7258 C.ar    
  12 O12            1.3987     7.4528     2.1576 O.3     
  13 C13            2.7079     7.9221     2.4861 C.3     
  14 C14            2.9166     9.3135     1.8850 C.3     
  15 C15            2.8563     7.9961     4.0071 C.3     
  16 C16           -1.0720     6.4477     1.3043 C.1     
  17 N17           -1.9091     7.1390     0.9700 N.1     
  18 C18            0.9567    -2.0436     2.3935 C.ar    
  19 C19            2.1110    -2.6122     1.8461 C.ar    
  20 C20            2.3439    -3.9638     1.9924 C.ar    
  21 C21            1.4339    -4.7523     2.6801 C.ar    
  22 C22            0.2909    -4.1953     3.2222 C.ar    
  23 C23            0.0498    -2.8434     3.0886 C.ar    
  24 C24            3.2405    -1.9782     1.0633 C.3     
  25 C25            4.3965    -2.9992     1.1244 C.3     
  26 C26            3.6474    -4.3348     1.3175 C.3     
  27 N27            4.4247    -5.2346     2.1733 N.am    
  28 S28            4.4014    -6.8670     1.8956 S.o2    
  29 C29            5.1819    -7.0607     0.2696 C.3     
  30 O30            5.2311    -7.4077     2.9146 O.2     
  31 O31            3.0196    -7.1911     1.8272 O.2     
  32 C32            5.2205    -8.5439    -0.1041 C.3     
  33 N33            5.7382    -8.6911    -1.4710 N.3     
  34 C34            5.8882   -10.1180    -1.8301 C.3     
  35 C35            7.1197   -10.2257    -2.7483 C.3     
  36 C36            7.6691    -8.7848    -2.8576 C.3     
  37 C37            7.0946    -8.0981    -1.5931 C.3     
  38 O38            9.0978    -8.7848    -2.8280 O.3     
  39 H39           -1.3060    -0.6267     1.5213 H       
  40 H40           -1.1473     3.7780     1.3947 H       
  41 H41            2.8456     3.2436     2.8627 H       
  42 H42            3.1752     5.6750     2.8800 H       
  43 H43            3.4520     7.2361     2.0814 H       
  44 H44            2.1725     9.9995     2.2898 H       
  45 H45            3.9152     9.6715     2.1356 H       
  46 H46            2.8108     9.2608     0.8015 H       
  47 H47            2.1122     8.6821     4.4119 H       
  48 H48            2.7076     7.0049     4.4354 H       
  49 H49            3.8549     8.3541     4.2577 H       
  50 H50            1.6195    -5.8102     2.7929 H       
  51 H51           -0.4117    -4.8182     3.7556 H       
  52 H52           -0.8432    -2.4078     3.5120 H       
  53 H53            2.9374    -1.8113     0.0297 H       
  54 H54            3.5410    -1.0384     1.5267 H       
  55 H55            4.9604    -3.0025     0.1916 H       
  56 H56            5.0497    -2.7950     1.9728 H       
  57 H57            3.4538    -4.8029     0.3524 H       
  58 H58            4.9531    -4.8742     2.9025 H       
  59 H59            4.6071    -6.5127    -0.4770 H       
  60 H60            6.1983    -6.6685     0.3054 H       
  61 H61            5.8704    -9.0767     0.5900 H       
  62 H62            4.2138    -8.9584    -0.0503 H       
  63 H63            6.0429   -10.7132    -0.9301 H       
  64 H64            4.9996   -10.4633    -2.3586 H       
  65 H65            7.8670   -10.8828    -2.3035 H       
  66 H66            6.8275   -10.5948    -3.7314 H       
  67 H67            7.3010    -8.2991    -3.7613 H       
  68 H68            7.0313    -7.0194    -1.7363 H       
  69 H69            7.6988    -8.3363    -0.7178 H       
  70 H70            9.5063    -9.2702    -3.5578 H       
@<TRIPOS>BOND
   1    1    2 1
   2    1    3 2
   3    2    5 2
   4    2   39 1
   5    3    4 1
   6    3    6 1
   7    4    5 1
   8    5   18 1
   9    6    7 ar
  10    6    8 ar
  11    7   11 ar
  12    7   40 1
  13    8    9 ar
  14    8   41 1
  15    9   10 ar
  16    9   42 1
  17   10   11 ar
  18   10   12 1
  19   11   16 1
  20   12   13 1
  21   13   14 1
  22   13   15 1
  23   13   43 1
  24   14   44 1
  25   14   45 1
  26   14   46 1
  27   15   47 1
  28   15   48 1
  29   15   49 1
  30   16   17 3
  31   18   19 ar
  32   18   23 ar
  33   19   20 ar
  34   19   24 1
  35   20   21 ar
  36   20   26 1
  37   21   22 ar
  38   21   50 1
  39   22   23 ar
  40   22   51 1
  41   23   52 1
  42   24   25 1
  43   24   53 1
  44   24   54 1
  45   25   26 1
  46   25   55 1
  47   25   56 1
  48   26   27 1
  49   26   57 1
  50   27   28 am
  51   27   58 1
  52   28   29 1
  53   28   30 2
  54   28   31 2
  55   29   32 1
  56   29   59 1
  57   29   60 1
  58   32   33 1
  59   32   61 1
  60   32   62 1
  61   33   34 1
  62   33   37 1
  63   34   35 1
  64   34   63 1
  65   34   64 1
  66   35   36 1
  67   35   65 1
  68   35   66 1
  69   36   37 1
  70   36   38 1
  71   36   67 1
  72   37   68 1
  73   37   69 1
  74   38   70 1

#	End of record

