#	Name: ASD01813648
#	Creating user name:	WinNT
#	Creation time:	15. 06. 2019 19:30

#	Modifying user name:	WinNT
#	Modification time:	15. 06. 2019 19:30

#	Program:	/corina/corina34_cracker 3.40 0067  02.08.2006

@<TRIPOS>MOLECULE
ASD01813648
  51   54    0    0    0
SMALL
NO_CHARGES


@<TRIPOS>ATOM
   1 C1             1.1740     1.9390     0.8190 C.ar    
   2 C2             0.9562     0.5700     0.7617 C.ar    
   3 C3             2.0033    -0.3011     0.5429 C.ar    
   4 C4             3.2966     0.1933     0.3767 C.ar    
   5 C5             3.5124     1.5802     0.4355 C.ar    
   6 C6             2.4435     2.4484     0.6576 C.ar    
   7 N7             4.3524    -0.6662     0.1584 N.pl3   
   8 C8             5.6114    -0.2417    -0.0056 C.2     
   9 C9             5.9472     1.0969     0.0320 C.2     
  10 C10            4.8850     2.0901     0.2582 C.2     
  11 O11            5.1295     3.2832     0.2998 O.2     
  12 C12            7.3418     1.5229    -0.1516 C.2     
  13 O13            7.6570     2.8330    -0.1127 O.3     
  14 O14            8.2110     0.6939    -0.3385 O.2     
  15 C15            4.0850    -2.1056     0.1041 C.3     
  16 C16            3.8132    -2.5125    -1.3212 C.ar    
  17 C17            4.8609    -2.7785    -2.1826 C.ar    
  18 N18            4.6366    -3.1348    -3.4314 N.ar    
  19 C19            3.4047    -3.2527    -3.9104 C.ar    
  20 C20            2.3012    -2.9995    -3.0967 C.ar    
  21 C21            2.5081    -2.6293    -1.7797 C.ar    
  22 F22            1.7761    -1.6318     0.4900 F       
  23 C23            3.2002    -3.6561    -5.3216 C.ar    
  24 C24            4.3019    -3.9122    -6.1469 C.ar    
  25 C25            4.0994    -4.2900    -7.4673 C.ar    
  26 C26            2.8161    -4.4117    -7.9626 C.ar    
  27 C27            1.7254    -4.1586    -7.1484 C.ar    
  28 C28            1.9105    -3.7882    -5.8322 C.ar    
  29 N29            5.5961    -3.7878    -5.6452 N.am    
  30 S30            6.8092    -3.2154    -6.6164 S.o2    
  31 C31            6.2565    -1.5570    -7.1011 C.3     
  32 O32            7.9374    -3.1334    -5.7563 O.2     
  33 O33            6.8037    -4.0900    -7.7363 O.2     
  34 H34            0.3435     2.6087     0.9865 H       
  35 H35           -0.0435     0.1822     0.8901 H       
  36 H36            2.6104     3.5145     0.7022 H       
  37 H37            6.3905    -0.9707    -0.1727 H       
  38 H38            8.5874     3.0646    -0.2386 H       
  39 H39            4.9516    -2.6504     0.4786 H       
  40 H40            3.2162    -2.3372     0.7201 H       
  41 H41            5.8773    -2.6929    -1.8275 H       
  42 H42            1.2991    -3.0950    -3.4877 H       
  43 H43            1.6730    -2.4268    -1.1255 H       
  44 H44            4.9461    -4.4885    -8.1077 H       
  45 H45            2.6626    -4.7055    -8.9904 H       
  46 H46            0.7251    -4.2555    -7.5440 H       
  47 H47            1.0565    -3.5921    -5.2008 H       
  48 H48            5.7863    -4.0366    -4.7272 H       
  49 H49            6.1246    -0.9431    -6.2101 H       
  50 H50            7.0038    -1.1001    -7.7498 H       
  51 H51            5.3089    -1.6314    -7.6347 H       
@<TRIPOS>BOND
   1    1    2 ar
   2    1    6 ar
   3    1   34 1
   4    2    3 ar
   5    2   35 1
   6    3    4 ar
   7    3   22 1
   8    4    5 ar
   9    4    7 1
  10    5    6 ar
  11    5   10 1
  12    6   36 1
  13    7    8 1
  14    7   15 1
  15    8    9 2
  16    8   37 1
  17    9   10 1
  18    9   12 1
  19   10   11 2
  20   12   13 1
  21   12   14 2
  22   13   38 1
  23   15   16 1
  24   15   39 1
  25   15   40 1
  26   16   17 ar
  27   16   21 ar
  28   17   18 ar
  29   17   41 1
  30   18   19 ar
  31   19   20 ar
  32   19   23 1
  33   20   21 ar
  34   20   42 1
  35   21   43 1
  36   23   24 ar
  37   23   28 ar
  38   24   25 ar
  39   24   29 1
  40   25   26 ar
  41   25   44 1
  42   26   27 ar
  43   26   45 1
  44   27   28 ar
  45   27   46 1
  46   28   47 1
  47   29   30 am
  48   29   48 1
  49   30   31 1
  50   30   32 2
  51   30   33 2
  52   31   49 1
  53   31   50 1
  54   31   51 1

#	End of record

