#	Name: ASD02030032
#	Creating user name:	WinNT
#	Creation time:	15. 06. 2019 20:14

#	Modifying user name:	WinNT
#	Modification time:	15. 06. 2019 20:14

#	Program:	/corina/corina34_cracker 3.40 0067  02.08.2006

@<TRIPOS>MOLECULE
ASD02030032
  58   61    0    0    0
SMALL
NO_CHARGES


@<TRIPOS>ATOM
   1 N1            -0.2771     1.3981     0.7349 N.am    
   2 C2            -0.1805     0.0586     0.8484 C.2     
   3 N3            -1.0920    -0.7356     0.2527 N.am    
   4 C4            -0.9333    -2.1204     0.2788 C.ar    
   5 O5             0.7288    -0.4334     1.4881 O.2     
   6 C6            -2.0504    -2.9439     0.3343 C.ar    
   7 C7            -1.8933    -4.3186     0.3602 C.ar    
   8 C8            -0.6025    -4.8709     0.3302 C.ar    
   9 C9             0.5122    -4.0275     0.2743 C.ar    
  10 C10            0.3448    -2.6729     0.2434 C.ar    
  11 C11           -0.4231    -6.3310     0.3578 C.2     
  12 O12            0.8170    -6.8584     0.3288 O.3     
  13 O13           -1.3932    -7.0617     0.4067 O.2     
  14 C14            0.9184    -8.3065     0.3588 C.3     
  15 C15            1.0410    -8.8113     1.8180 C.3     
  16 C16            1.7274   -10.1892     1.6465 C.3     
  17 C17            2.7417    -9.9671     0.5056 C.3     
  18 C18            2.2274    -8.7701    -0.3131 C.3     
  19 N19            1.9640    -9.1826    -1.6939 N.am    
  20 C20            2.9587    -9.1676    -2.6032 C.2     
  21 O21            4.0741    -8.8118    -2.2776 O.2     
  22 C22            2.6923    -9.5848    -3.9995 C.ar    
  23 C23            3.7098    -9.5766    -4.9584 C.ar    
  24 C24            3.4174    -9.9740    -6.2487 C.ar    
  25 N25            2.2001   -10.3562    -6.5798 N.ar    
  26 C26            1.2125   -10.3787    -5.7072 C.ar    
  27 C27            1.4177   -10.0031    -4.3936 C.ar    
  28 O28           -2.9803    -5.1282     0.4148 O.3     
  29 C29            0.6018     2.2254     1.4430 C.ar    
  30 C30            1.0083     3.4365     0.8985 C.ar    
  31 C31            1.8758     4.2508     1.5998 C.ar    
  32 C32            2.3397     3.8611     2.8429 C.ar    
  33 C33            1.9369     2.6557     3.3877 C.ar    
  34 C34            1.0650     1.8396     2.6940 C.ar    
  35 H35           -0.9532     1.7886     0.1594 H       
  36 H36           -1.8586    -0.3437    -0.1942 H       
  37 H37           -3.0400    -2.5121     0.3575 H       
  38 H38            1.5064    -4.4487     0.2511 H       
  39 H39            1.2086    -2.0259     0.2003 H       
  40 H40            0.0554    -8.7586    -0.1301 H       
  41 H41            1.6647    -8.1397     2.4079 H       
  42 H42            0.0563    -8.9240     2.2717 H       
  43 H43            2.2416   -10.4760     2.5638 H       
  44 H44            0.9964   -10.9471     1.3649 H       
  45 H45            3.7250    -9.7420     0.9188 H       
  46 H46            2.7954   -10.8550    -0.1244 H       
  47 H47            2.9610    -7.9641    -0.2973 H       
  48 H48            1.0736    -9.4666    -1.9538 H       
  49 H49            4.7093    -9.2640    -4.6943 H       
  50 H50            4.1967    -9.9711    -6.9965 H       
  51 H51            0.2304   -10.6992    -6.0223 H       
  52 H52            0.6040   -10.0244    -3.6839 H       
  53 H53           -3.3249    -5.3830    -0.4520 H       
  54 H54            0.6466     3.7412    -0.0724 H       
  55 H55            2.1925     5.1926     1.1768 H       
  56 H56            3.0184     4.4994     3.3891 H       
  57 H57            2.3013     2.3540     4.3586 H       
  58 H58            0.7505     0.8984     3.1202 H       
@<TRIPOS>BOND
   1    1    2 am
   2    1   29 1
   3    1   35 1
   4    2    3 am
   5    2    5 2
   6    3    4 1
   7    3   36 1
   8    4    6 ar
   9    4   10 ar
  10    6    7 ar
  11    6   37 1
  12    7    8 ar
  13    7   28 1
  14    8    9 ar
  15    8   11 1
  16    9   10 ar
  17    9   38 1
  18   10   39 1
  19   11   12 1
  20   11   13 2
  21   12   14 1
  22   14   15 1
  23   14   18 1
  24   14   40 1
  25   15   16 1
  26   15   41 1
  27   15   42 1
  28   16   17 1
  29   16   43 1
  30   16   44 1
  31   17   18 1
  32   17   45 1
  33   17   46 1
  34   18   19 1
  35   18   47 1
  36   19   20 am
  37   19   48 1
  38   20   21 2
  39   20   22 1
  40   22   23 ar
  41   22   27 ar
  42   23   24 ar
  43   23   49 1
  44   24   25 ar
  45   24   50 1
  46   25   26 ar
  47   26   27 ar
  48   26   51 1
  49   27   52 1
  50   28   53 1
  51   29   30 ar
  52   29   34 ar
  53   30   31 ar
  54   30   54 1
  55   31   32 ar
  56   31   55 1
  57   32   33 ar
  58   32   56 1
  59   33   34 ar
  60   33   57 1
  61   34   58 1

#	End of record

