#	Name: ASD07300462
#	Creating user name:	WinNT
#	Creation time:	15. 06. 2019 21:09

#	Modifying user name:	WinNT
#	Modification time:	15. 06. 2019 21:09

#	Program:	/corina/corina34_cracker 3.40 0067  02.08.2006

@<TRIPOS>MOLECULE
ASD07300462
  38   41    0    0    0
SMALL
NO_CHARGES


@<TRIPOS>ATOM
   1 C1             1.0199     2.0288    -0.2134 C.ar    
   2 C2             0.8210     0.7020    -0.5722 C.ar    
   3 C3             1.8821    -0.1811    -0.5666 C.ar    
   4 C4             3.1486     0.2574    -0.2025 C.ar    
   5 C5             3.3476     1.5844     0.1559 C.ar    
   6 C6             2.2863     2.4674     0.1507 C.ar    
   7 N7            -0.0555     2.9258    -0.2243 N.pl3   
   8 N8             4.2248    -0.6383    -0.1964 N.pl3   
   9 C9             7.0024     1.5842    -0.4886 C.ar    
  10 N10            5.7741     1.1351    -0.3273 N.ar    
  11 C11            5.5178    -0.1692    -0.3668 C.ar    
  12 C12            6.5728    -1.0589    -0.5824 C.ar    
  13 C13            7.8427    -0.5422    -0.7460 C.ar    
  14 N14            8.0185     0.7708    -0.6936 N.ar    
  15 N15            6.3353    -2.5191    -0.6337 N.pl3   
  16 O16            7.2788    -3.2890    -0.6583 O.2     
  17 O17            5.1965    -2.9507    -0.6513 O.2     
  18 O18           -0.9620     5.0068     0.5981 O.3     
  19 C19           -0.0470     4.0213     0.6107 C.2     
  20 N20            0.8525     4.2550     1.5320 N.2     
  21 C21            0.5426     5.4231     2.1583 C.ar    
  22 C22           -0.6282     5.9050     1.5532 C.ar    
  23 C23            1.1333     6.1470     3.1945 C.ar    
  24 C24            0.5622     7.3287     3.6147 C.ar    
  25 C25           -0.5945     7.8008     3.0146 C.ar    
  26 C26           -1.1892     7.0943     1.9882 C.ar    
  27 H27           -0.1638     0.3609    -0.8554 H       
  28 H28            1.7273    -1.2131    -0.8450 H       
  29 H29            4.3324     1.9254     0.4394 H       
  30 H30            2.4410     3.4992     0.4295 H       
  31 H31           -0.8063     2.7757    -0.8198 H       
  32 H32            4.0653    -1.5871    -0.0728 H       
  33 H33            7.1804     2.6490    -0.4563 H       
  34 H34            8.6828    -1.1998    -0.9142 H       
  35 H35            2.0342     5.7826     3.6655 H       
  36 H36            1.0184     7.8900     4.4167 H       
  37 H37           -1.0340     8.7278     3.3524 H       
  38 H38           -2.0901     7.4686     1.5250 H       
@<TRIPOS>BOND
   1    1    2 ar
   2    1    6 ar
   3    1    7 1
   4    2    3 ar
   5    2   27 1
   6    3    4 ar
   7    3   28 1
   8    4    5 ar
   9    4    8 1
  10    5    6 ar
  11    5   29 1
  12    6   30 1
  13    7   19 1
  14    7   31 1
  15    8   11 1
  16    8   32 1
  17    9   10 ar
  18    9   14 ar
  19    9   33 1
  20   10   11 ar
  21   11   12 ar
  22   12   13 ar
  23   12   15 1
  24   13   14 ar
  25   13   34 1
  26   15   16 2
  27   15   17 2
  28   18   19 1
  29   18   22 1
  30   19   20 2
  31   20   21 1
  32   21   22 ar
  33   21   23 ar
  34   22   26 ar
  35   23   24 ar
  36   23   35 1
  37   24   25 ar
  38   24   36 1
  39   25   26 ar
  40   25   37 1
  41   26   38 1

#	End of record

