#	Name: ASD01810686
#	Creating user name:	WinNT
#	Creation time:	15. 06. 2019 19:25

#	Modifying user name:	WinNT
#	Modification time:	15. 06. 2019 19:25

#	Program:	/corina/corina34_cracker 3.40 0067  02.08.2006

@<TRIPOS>MOLECULE
ASD01810686
  49   49    0    0    0
SMALL
NO_CHARGES


@<TRIPOS>ATOM
   1 C1             0.7126     2.1804     0.9723 C.3     
   2 C2            -0.2600     1.0006     1.0260 C.3     
   3 C3             0.3838    -0.1566     1.7923 C.3     
   4 C4             0.0237     3.3718     0.3582 C.2     
   5 O5            -0.6626     4.0924     1.0435 O.2     
   6 O6             0.1726     3.6325    -0.9501 O.3     
   7 C7             1.1622     2.5248     2.3688 C.2     
   8 O8             0.9454     3.6248     2.8193 O.2     
   9 O9             1.8034     1.6095     3.1123 O.3     
  10 C10           -0.4752    -1.3875     1.6580 C.2     
  11 O11           -1.4974    -1.3438     1.0154 O.2     
  12 O12           -0.1046    -2.5326     2.2524 O.3     
  13 C13            1.7522    -0.4347     1.2256 C.2     
  14 O14            1.9831    -0.2025     0.0626 O.2     
  15 O15            2.7146    -0.9404     2.0130 O.3     
  16 C16           -1.5255     1.4243     1.7261 C.ar    
  17 C17           -2.7362     1.3614     1.0613 C.ar    
  18 C18           -3.8977     1.7492     1.7008 C.ar    
  19 C19           -3.8486     2.2021     3.0112 C.ar    
  20 C20           -2.6325     2.2643     3.6760 C.ar    
  21 C21           -1.4747     1.8700     3.0339 C.ar    
  22 O22           -4.9897     2.5846     3.6423 O.3     
  23 C23           -4.8638     3.0400     4.9909 C.3     
  24 C24           -0.4567     4.8386    -1.4577 C.3     
  25 C25            2.2072     2.0107     4.4481 C.3     
  26 C26           -0.9803    -3.6780     2.0804 C.3     
  27 C27            4.0382    -1.0761     1.4317 C.3     
  28 H28            1.5786     1.9102     0.3681 H       
  29 H29           -0.4963     0.6781     0.0120 H       
  30 H30            0.4740     0.1104     2.8452 H       
  31 H31           -2.7739     1.0091     0.0410 H       
  32 H32           -4.8431     1.7002     1.1810 H       
  33 H33           -2.5917     2.6165     4.6962 H       
  34 H34           -0.5284     1.9137     3.5526 H       
  35 H35           -4.4419     2.2445     5.6052 H       
  36 H36           -4.2069     3.9094     5.0210 H       
  37 H37           -5.8464     3.3136     5.3753 H       
  38 H38           -1.5390     4.7520    -1.3612 H       
  39 H39           -0.1086     5.6985    -0.8854 H       
  40 H40           -0.1950     4.9707    -2.5075 H       
  41 H41            2.8850     2.8619     4.3826 H       
  42 H42            1.3261     2.2916     5.0250 H       
  43 H43            2.7136     1.1800     4.9395 H       
  44 H44           -1.9663    -3.4451     2.4824 H       
  45 H45           -1.0667    -3.9133     1.0196 H       
  46 H46           -0.5653    -4.5355     2.6101 H       
  47 H47            3.9781    -1.6843     0.5291 H       
  48 H48            4.4274    -0.0896     1.1798 H       
  49 H49            4.7029    -1.5564     2.1498 H       
@<TRIPOS>BOND
   1    1    2 1
   2    1    4 1
   3    1    7 1
   4    1   28 1
   5    2    3 1
   6    2   16 1
   7    2   29 1
   8    3   10 1
   9    3   13 1
  10    3   30 1
  11    4    5 2
  12    4    6 1
  13    6   24 1
  14    7    8 2
  15    7    9 1
  16    9   25 1
  17   10   11 2
  18   10   12 1
  19   12   26 1
  20   13   14 2
  21   13   15 1
  22   15   27 1
  23   16   17 ar
  24   16   21 ar
  25   17   18 ar
  26   17   31 1
  27   18   19 ar
  28   18   32 1
  29   19   20 ar
  30   19   22 1
  31   20   21 ar
  32   20   33 1
  33   21   34 1
  34   22   23 1
  35   23   35 1
  36   23   36 1
  37   23   37 1
  38   24   38 1
  39   24   39 1
  40   24   40 1
  41   25   41 1
  42   25   42 1
  43   25   43 1
  44   26   44 1
  45   26   45 1
  46   26   46 1
  47   27   47 1
  48   27   48 1
  49   27   49 1

#	End of record

