#	Name: ASD03240622
#	Creating user name:	WinNT
#	Creation time:	15. 06. 2019 20:35

#	Modifying user name:	WinNT
#	Modification time:	15. 06. 2019 20:35

#	Program:	/corina/corina34_cracker 3.40 0067  02.08.2006

@<TRIPOS>MOLECULE
ASD03240622
  66   72    0    0    0
SMALL
NO_CHARGES


@<TRIPOS>ATOM
   1 C1            -0.0166     1.3754     0.0096 C.ar    
   2 C2             0.0021    -0.0041     0.0020 C.ar    
   3 N3             1.1422    -0.6682    -0.0058 N.ar    
   4 C4             2.3145    -0.0482    -0.0058 C.ar    
   5 C5             2.3701     1.3444    -0.0123 C.ar    
   6 C6             1.1861     2.0697     0.0018 C.ar    
   7 N7             3.4822    -0.8057     0.0217 N.pl3   
   8 C8             4.3601    -0.7200     1.0990 C.ar    
   9 C9             4.9963     0.4887     1.4031 C.ar    
  10 C10            4.7631     1.6818     0.5617 C.2     
  11 N11            3.5943     2.0266    -0.0508 N.pl3   
  12 C12            4.6067    -1.8398     1.8817 C.ar    
  13 C13            5.4672    -1.7548     2.9597 C.ar    
  14 C14            6.0878    -0.5567     3.2688 C.ar    
  15 C15            5.8578     0.5645     2.4972 C.ar    
  16 N16            5.6690     2.5980     0.2784 N.2     
  17 C17            5.1321     3.5328    -0.5069 C.2     
  18 C18            3.8303     3.2037    -0.7344 C.2     
  19 C19            2.8592     3.9588    -1.5533 C.ar    
  20 C20            2.7643     5.3460    -1.4269 C.ar    
  21 C21            2.0365     3.2890    -2.4607 C.ar    
  22 C22            1.1324     4.0000    -3.2223 C.ar    
  23 C23            1.0402     5.3741    -3.0887 C.ar    
  24 C24            1.8559     6.0448    -2.1947 C.ar    
  25 C25            5.8439     4.7452    -1.0495 C.3     
  26 C26            0.0506     6.1443    -3.9244 C.3     
  27 C27            6.4783     4.4027    -2.3991 C.3     
  28 C28            7.1901     5.6152    -2.9416 C.ar    
  29 N29           -1.0104     5.2939    -4.4804 N.3     
  30 C30           -0.4753     7.4169    -3.2397 C.3     
  31 C31           -0.3758     8.1021    -4.6128 C.3     
  32 C32            0.7085     7.0691    -4.9621 C.3     
  33 C33            8.5199     5.8318    -2.6327 C.ar    
  34 C34            9.1728     6.9440    -3.1304 C.ar    
  35 C35            8.4960     7.8393    -3.9374 C.ar    
  36 C36            7.1664     7.6222    -4.2470 C.ar    
  37 C37            6.5147     6.5077    -3.7529 C.ar    
  38 H38           -0.9555     1.9091     0.0170 H       
  39 H39           -0.9306    -0.5486     0.0029 H       
  40 H40            1.2002     3.1496     0.0071 H       
  41 H41            3.6863    -1.3998    -0.7175 H       
  42 H42            4.1255    -2.7780     1.6482 H       
  43 H43            5.6564    -2.6288     3.5653 H       
  44 H44            6.7543    -0.4989     4.1166 H       
  45 H45            6.3434     1.4981     2.7403 H       
  46 H46            3.4004     5.8707    -0.7295 H       
  47 H47            2.1080     2.2165    -2.5665 H       
  48 H48            0.4954     3.4830    -3.9247 H       
  49 H49            1.7786     7.1174    -2.0950 H       
  50 H50            5.1294     5.5580    -1.1797 H       
  51 H51            6.6213     5.0533    -0.3504 H       
  52 H52            7.1928     3.5899    -2.2689 H       
  53 H53            5.7009     4.0946    -3.0982 H       
  54 H54           -0.6213     4.4848    -4.9408 H       
  55 H55           -1.6677     5.0215    -3.7648 H       
  56 H56           -1.4969     7.3240    -2.8711 H       
  57 H57            0.2083     7.8271    -2.4964 H       
  58 H58           -1.2795     8.0071    -5.2148 H       
  59 H59           -0.0042     9.1257    -4.5641 H       
  60 H60            1.7158     7.3842    -4.6897 H       
  61 H61            0.6426     6.6955    -5.9839 H       
  62 H62            9.0487     5.1323    -2.0022 H       
  63 H63           10.2116     7.1136    -2.8884 H       
  64 H64            9.0059     8.7086    -4.3256 H       
  65 H65            6.6375     8.3218    -4.8772 H       
  66 H66            5.4759     6.3381    -3.9949 H       
@<TRIPOS>BOND
   1    1    2 ar
   2    1    6 ar
   3    1   38 1
   4    2    3 ar
   5    2   39 1
   6    3    4 ar
   7    4    5 ar
   8    4    7 1
   9    5    6 ar
  10    5   11 1
  11    6   40 1
  12    7    8 1
  13    7   41 1
  14    8    9 ar
  15    8   12 ar
  16    9   10 1
  17    9   15 ar
  18   10   11 1
  19   10   16 2
  20   11   18 1
  21   12   13 ar
  22   12   42 1
  23   13   14 ar
  24   13   43 1
  25   14   15 ar
  26   14   44 1
  27   15   45 1
  28   16   17 1
  29   17   18 2
  30   17   25 1
  31   18   19 1
  32   19   20 ar
  33   19   21 ar
  34   20   24 ar
  35   20   46 1
  36   21   22 ar
  37   21   47 1
  38   22   23 ar
  39   22   48 1
  40   23   24 ar
  41   23   26 1
  42   24   49 1
  43   25   27 1
  44   25   50 1
  45   25   51 1
  46   26   30 1
  47   26   29 1
  48   26   32 1
  49   27   28 1
  50   27   52 1
  51   27   53 1
  52   28   33 ar
  53   28   37 ar
  54   29   54 1
  55   29   55 1
  56   30   31 1
  57   30   56 1
  58   30   57 1
  59   31   32 1
  60   31   58 1
  61   31   59 1
  62   32   60 1
  63   32   61 1
  64   33   34 ar
  65   33   62 1
  66   34   35 ar
  67   34   63 1
  68   35   36 ar
  69   35   64 1
  70   36   37 ar
  71   36   65 1
  72   37   66 1

#	End of record

