#	Name: ASD04590637
#	Creating user name:	WinNT
#	Creation time:	15. 06. 2019 20:51

#	Modifying user name:	WinNT
#	Modification time:	15. 06. 2019 20:51

#	Program:	/corina/corina34_cracker 3.40 0067  02.08.2006

@<TRIPOS>MOLECULE
ASD04590637
  64   70    0    0    0
SMALL
NO_CHARGES


@<TRIPOS>ATOM
   1 N1            -0.0171     1.3232    -0.0119 N.ar    
   2 C2             0.0017    -0.0035    -0.0051 C.ar    
   3 N3             1.1298    -0.6949    -0.0118 N.ar    
   4 C4             2.3050    -0.0728    -0.0262 C.ar    
   5 C5             2.3189     1.3366    -0.0341 C.ar    
   6 C6             1.1072     2.0202    -0.0261 C.ar    
   7 N7             3.6031    -0.5195    -0.0358 N.pl3   
   8 C8             4.4823     0.5495    -0.0498 C.ar    
   9 C9             3.7312     1.7385    -0.0494 C.ar    
  10 C10            5.8680     0.6418    -0.0632 C.ar    
  11 N11            6.4613     1.8181    -0.0753 N.ar    
  12 C12            5.7850     2.9533    -0.0752 C.ar    
  13 C13            4.4064     2.9585    -0.0621 C.ar    
  14 N14           -1.2019    -0.6887     0.0098 N.pl3   
  15 C15           -2.4019     0.0120     0.1303 C.ar    
  16 C16            4.0018    -1.9292    -0.0312 C.3     
  17 C17            3.4004    -2.6445     1.1962 C.3     
  18 C18            3.4384    -2.6403    -1.2741 C.3     
  19 C19            2.5144    -3.7629    -0.7586 C.3     
  20 C20            2.1010    -3.2939     0.6586 C.3     
  21 N21           -2.3783     1.3196     0.3309 N.ar    
  22 C22           -3.4885     2.0229     0.4509 C.ar    
  23 C23           -4.7291     1.4087     0.3703 C.ar    
  24 C24           -4.7935     0.0321     0.1596 C.ar    
  25 C25           -3.6094    -0.6709     0.0326 C.ar    
  26 N26           -5.9023     2.1615     0.4995 N.3     
  27 C27           -6.7473     1.6383     1.5820 C.3     
  28 C28           -8.0519     2.4365     1.6384 C.3     
  29 C29           -5.5953     3.5824     0.7148 C.3     
  30 C30           -6.9000     4.3806     0.7711 C.3     
  31 N31           -7.7449     3.8574     1.8537 N.3     
  32 C32           -8.9760     4.6473     1.9892 C.3     
  33 C33           -9.9673     4.2296     3.0772 C.3     
  34 C34           -9.1329     5.5004     3.2496 C.3     
  35 H35            1.0848     3.1000    -0.0322 H       
  36 H36            6.4645    -0.2585    -0.0634 H       
  37 H37            6.3203     3.8912    -0.0851 H       
  38 H38            3.8597     3.8899    -0.0625 H       
  39 H39           -1.2103    -1.6559    -0.0635 H       
  40 H40            5.0887    -2.0095    -0.0157 H       
  41 H41            4.0843    -3.4087     1.5654 H       
  42 H42            3.1704    -1.9252     1.9822 H       
  43 H43            2.8684    -1.9365    -1.8806 H       
  44 H44            4.2519    -3.0664    -1.8613 H       
  45 H45            1.6378    -3.8597    -1.3991 H       
  46 H46            3.0552    -4.7077    -0.7051 H       
  47 H47            1.8091    -4.1429     1.2766 H       
  48 H48            1.2968    -2.5602     0.6034 H       
  49 H49           -3.4301     3.0889     0.6140 H       
  50 H50           -5.7459    -0.4729     0.0926 H       
  51 H51           -3.6221    -1.7382    -0.1317 H       
  52 H52           -6.9712     0.5883     1.3935 H       
  53 H53           -6.2214     1.7334     2.5321 H       
  54 H54           -8.5909     2.3193     0.6982 H       
  55 H55           -8.6679     2.0691     2.4592 H       
  56 H56           -5.0564     3.6996     1.6549 H       
  57 H57           -4.9794     3.9498    -0.1061 H       
  58 H58           -6.6760     5.4305     0.9597 H       
  59 H59           -7.4258     4.2855    -0.1789 H       
  60 H60           -9.3859     5.0422     1.0596 H       
  61 H61          -11.0293     4.3499     2.8636 H       
  62 H62           -9.7059     3.3686     3.6925 H       
  63 H63           -8.3226     5.4754     3.9783 H       
  64 H64           -9.6460     6.4568     3.1494 H       
@<TRIPOS>BOND
   1    1    2 ar
   2    1    6 ar
   3    2    3 ar
   4    2   14 1
   5    3    4 ar
   6    4    5 ar
   7    4    7 1
   8    5    6 ar
   9    5    9 1
  10    6   35 1
  11    7    8 1
  12    7   16 1
  13    8    9 ar
  14    8   10 ar
  15    9   13 ar
  16   10   11 ar
  17   10   36 1
  18   11   12 ar
  19   12   13 ar
  20   12   37 1
  21   13   38 1
  22   14   15 1
  23   14   39 1
  24   15   21 ar
  25   15   25 ar
  26   16   18 1
  27   16   17 1
  28   16   40 1
  29   17   20 1
  30   17   41 1
  31   17   42 1
  32   18   19 1
  33   18   43 1
  34   18   44 1
  35   19   20 1
  36   19   45 1
  37   19   46 1
  38   20   47 1
  39   20   48 1
  40   21   22 ar
  41   22   23 ar
  42   22   49 1
  43   23   24 ar
  44   23   26 1
  45   24   25 ar
  46   24   50 1
  47   25   51 1
  48   26   29 1
  49   26   27 1
  50   27   28 1
  51   27   52 1
  52   27   53 1
  53   28   31 1
  54   28   54 1
  55   28   55 1
  56   29   30 1
  57   29   56 1
  58   29   57 1
  59   30   31 1
  60   30   58 1
  61   30   59 1
  62   31   32 1
  63   32   33 1
  64   32   34 1
  65   32   60 1
  66   33   34 1
  67   33   61 1
  68   33   62 1
  69   34   63 1
  70   34   64 1

#	End of record

