#	Name: ASD01200128
#	Creating user name:	WinNT
#	Creation time:	15. 06. 2019 19:08

#	Modifying user name:	WinNT
#	Modification time:	15. 06. 2019 19:08

#	Program:	/corina/corina34_cracker 3.40 0067  02.08.2006

@<TRIPOS>MOLECULE
ASD01200128
  45   48    0    0    0
SMALL
NO_CHARGES


@<TRIPOS>ATOM
   1 C1            -0.0215     1.3706     0.0000 C.ar    
   2 C2             0.0003    -0.0126    -0.0107 C.ar    
   3 C3             1.2084    -0.6900    -0.0230 C.ar    
   4 C4             2.3902     0.0134    -0.0244 C.ar    
   5 C5             2.3798     1.4104    -0.0136 C.ar    
   6 C6             1.1584     2.0860    -0.0013 C.ar    
   7 C7             3.8401    -0.4021    -0.0361 C.3     
   8 N8             4.6230     0.8388    -0.0311 N.am    
   9 C9             3.7773     1.8835    -0.0181 C.2     
  10 O10            4.1155     3.0510    -0.0107 O.2     
  11 N11            4.1469    -1.1974     1.1604 N.3     
  12 C12            6.0855     0.9250    -0.0389 C.3     
  13 C13            6.5787     0.9655    -1.4624 C.2     
  14 C14            4.9684    -2.3664     0.8191 C.3     
  15 C15            5.2622    -3.1560     2.0686 C.2     
  16 N16            6.0054    -4.2780     1.9975 N.am    
  17 O17            4.8298    -2.7818     3.1381 O.2     
  18 C18            6.7662     2.0742    -2.1799 C.2     
  19 C19            7.2270     1.8641    -3.4682 C.2     
  20 C20            7.4135     0.5849    -3.7969 C.2     
  21 S21            7.0022    -0.4415    -2.4291 S.3     
  22 C22            6.3677    -4.9491     3.1644 C.ar    
  23 N23            6.0623    -4.4283     4.3422 N.ar    
  24 C24            6.3861    -5.0307     5.4703 C.ar    
  25 C25            7.0609    -6.2353     5.4613 C.ar    
  26 C26            7.4000    -6.8154     4.2463 C.ar    
  27 C27            7.0416    -6.1624     3.0803 C.ar    
  28 H28           -0.9667     1.8931     0.0050 H       
  29 H29           -0.9273    -0.5658    -0.0092 H       
  30 H30            1.2223    -1.7699    -0.0310 H       
  31 H31            1.1369     3.1657     0.0068 H       
  32 H32            4.0573    -0.9785    -0.9354 H       
  33 H33            4.5971    -0.6322     1.8646 H       
  34 H34            6.3988     1.8309     0.4801 H       
  35 H35            6.5035     0.0540     0.4658 H       
  36 H36            4.4292    -2.9950     0.1104 H       
  37 H37            5.9047    -2.0341     0.3707 H       
  38 H38            6.2882    -4.6186     1.1344 H       
  39 H39            6.5730     3.0609    -1.7858 H       
  40 H40            7.4204     2.6746    -4.1554 H       
  41 H41            7.7666     0.2334    -4.7551 H       
  42 H42            6.1203    -4.5757     6.4130 H       
  43 H43            7.3226    -6.7211     6.3897 H       
  44 H44            7.9281    -7.7568     4.2121 H       
  45 H45            7.2892    -6.5854     2.1179 H       
@<TRIPOS>BOND
   1    1    2 ar
   2    1    6 ar
   3    1   28 1
   4    2    3 ar
   5    2   29 1
   6    3    4 ar
   7    3   30 1
   8    4    5 ar
   9    4    7 1
  10    5    6 ar
  11    5    9 1
  12    6   31 1
  13    7    8 1
  14    7   11 1
  15    7   32 1
  16    8    9 am
  17    8   12 1
  18    9   10 2
  19   11   14 1
  20   11   33 1
  21   12   13 1
  22   12   34 1
  23   12   35 1
  24   13   18 2
  25   13   21 1
  26   14   15 1
  27   14   36 1
  28   14   37 1
  29   15   16 am
  30   15   17 2
  31   16   22 1
  32   16   38 1
  33   18   19 1
  34   18   39 1
  35   19   20 2
  36   19   40 1
  37   20   21 1
  38   20   41 1
  39   22   23 ar
  40   22   27 ar
  41   23   24 ar
  42   24   25 ar
  43   24   42 1
  44   25   26 ar
  45   25   43 1
  46   26   27 ar
  47   26   44 1
  48   27   45 1

#	End of record

