#	Name: ASD07301054
#	Creating user name:	WinNT
#	Creation time:	15. 06. 2019 21:10

#	Modifying user name:	WinNT
#	Modification time:	15. 06. 2019 21:10

#	Program:	/corina/corina34_cracker 3.40 0067  02.08.2006

@<TRIPOS>MOLECULE
ASD07301054
  34   34    0    0    0
SMALL
NO_CHARGES


@<TRIPOS>ATOM
   1 C1            -0.5382     0.5496     1.2999 C.3     
   2 C2             0.0024    -0.0038     0.0067 C.2     
   3 C3             1.3289    -0.6207    -0.0274 C.2     
   4 C4             1.4654    -2.0707     0.1150 C.2     
   5 C5             2.8315    -2.7060     0.0800 C.3     
   6 O6            -0.6623     0.0621    -1.0066 O.2     
   7 O7             0.4784    -2.7616     0.2613 O.2     
   8 N8             2.4059     0.1332    -0.1870 N.2     
   9 N9             2.2807     1.3966    -0.4156 N.pl3   
  10 C10            3.4084     2.1712    -0.6886 C.ar    
  11 C11            3.2756     3.5378    -0.9361 C.ar    
  12 C12            4.3997     4.3011    -1.2066 C.ar    
  13 C13            5.6486     3.7087    -1.2313 C.ar    
  14 C14            5.7816     2.3540    -0.9862 C.ar    
  15 C15            4.6675     1.5855    -0.7094 C.ar    
  16 O16            2.0471     4.1185    -0.9123 O.3     
  17 C17            1.9877     5.5219    -1.1749 C.3     
  18 C18            0.5336     5.9927    -1.1052 C.3     
  19 H19            0.1544     0.3222     2.1102 H       
  20 H20           -0.6534     1.6300     1.2128 H       
  21 H21           -1.5068     0.0969     1.5121 H       
  22 H22            3.5880    -1.9335    -0.0578 H       
  23 H23            3.0131    -3.2291     1.0188 H       
  24 H24            2.8814    -3.4149    -0.7465 H       
  25 H25            1.4025     1.8080    -0.3975 H       
  26 H26            4.3002     5.3592    -1.3986 H       
  27 H27            6.5234     4.3057    -1.4432 H       
  28 H28            6.7596     1.8965    -1.0071 H       
  29 H29            4.7751     0.5288    -0.5136 H       
  30 H30            2.5786     6.0561    -0.4309 H       
  31 H31            2.3874     5.7228    -2.1689 H       
  32 H32           -0.0573     5.4585    -1.8492 H       
  33 H33            0.1339     5.7918    -0.1112 H       
  34 H34            0.4882     7.0632    -1.3055 H       
@<TRIPOS>BOND
   1    1    2 1
   2    1   19 1
   3    1   20 1
   4    1   21 1
   5    2    3 1
   6    2    6 2
   7    3    4 1
   8    3    8 2
   9    4    5 1
  10    4    7 2
  11    5   22 1
  12    5   23 1
  13    5   24 1
  14    8    9 1
  15    9   10 1
  16    9   25 1
  17   10   11 ar
  18   10   15 ar
  19   11   12 ar
  20   11   16 1
  21   12   13 ar
  22   12   26 1
  23   13   14 ar
  24   13   27 1
  25   14   15 ar
  26   14   28 1
  27   15   29 1
  28   16   17 1
  29   17   18 1
  30   17   30 1
  31   17   31 1
  32   18   32 1
  33   18   33 1
  34   18   34 1

#	End of record

