#	Name: ASD01882546
#	Creating user name:	WinNT
#	Creation time:	15. 06. 2019 19:44

#	Modifying user name:	WinNT
#	Modification time:	15. 06. 2019 19:44

#	Program:	/corina/corina34_cracker 3.40 0067  02.08.2006

@<TRIPOS>MOLECULE
ASD01882546
  55   59    0    0    0
SMALL
NO_CHARGES


@<TRIPOS>ATOM
   1 C1            -0.0170     1.4040     0.0098 C.2     
   2 C2             0.0021    -0.0041     0.0020 C.2     
   3 C3             1.1979    -0.6520    -0.0129 C.2     
   4 C4             2.3924     0.0887    -0.0203 C.2     
   5 C5             2.3586     1.4378    -0.0123 C.2     
   6 N6             1.1666     2.1005     0.0022 N.pl3   
   7 N7            -0.4824     3.4837     0.0230 N.2     
   8 N8            -0.9895     2.3010     0.0186 N.2     
   9 C9             0.8239     3.4172     0.0126 C.2     
  10 C10            1.2420    -2.1583    -0.0209 C.3     
  11 N11            1.3636    -2.6373    -1.4043 N.3     
  12 C12            1.6467    -4.0778    -1.4395 C.3     
  13 C13            1.9103    -4.5121    -2.8831 C.3     
  14 C14            0.6814    -4.1934    -3.7392 C.3     
  15 C15            0.3792    -2.6952    -3.6467 C.3     
  16 C16            0.1600    -2.3136    -2.1809 C.3     
  17 C17            0.9572    -4.5639    -5.1737 C.ar    
  18 C18            0.1661    -5.5023    -5.8096 C.ar    
  19 C19            0.4192    -5.8421    -7.1254 C.ar    
  20 C20            1.4630    -5.2432    -7.8055 C.ar    
  21 C21            2.2536    -4.3041    -7.1699 C.ar    
  22 C22            1.9978    -3.9611    -5.8554 C.ar    
  23 C23           -1.2874    -0.7840     0.0106 C.3     
  24 C24            1.7755     4.5857     0.0099 C.3     
  25 C25            2.0839     4.9889    -1.4335 C.3     
  26 C26            2.9438     6.2357    -1.6503 C.3     
  27 C27            3.5299     4.8471    -1.9130 C.3     
  28 H28            3.3425    -0.4246    -0.0322 H       
  29 H29            3.2825     1.9970    -0.0178 H       
  30 H30            2.0998    -2.4998     0.5585 H       
  31 H31            0.3259    -2.5510     0.4204 H       
  32 H32            2.5252    -4.2902    -0.8302 H       
  33 H33            0.7907    -4.6259    -1.0459 H       
  34 H34            2.7746    -3.9744    -3.2728 H       
  35 H35            2.1050    -5.5842    -2.9108 H       
  36 H36           -0.1743    -4.7609    -3.3736 H       
  37 H37            1.2195    -2.1290    -4.0484 H       
  38 H38           -0.5199    -2.4693    -4.2199 H       
  39 H39           -0.6890    -2.8700    -1.7838 H       
  40 H40           -0.0413    -1.2447    -2.1101 H       
  41 H41           -0.6494    -5.9703    -5.2783 H       
  42 H42           -0.1985    -6.5759    -7.6220 H       
  43 H43            1.6611    -5.5092    -8.8333 H       
  44 H44            3.0693    -3.8363    -7.7011 H       
  45 H45            2.6132    -3.2246    -5.3600 H       
  46 H46           -2.1300    -0.0927     0.0227 H       
  47 H47           -1.3412    -1.4069    -0.8822 H       
  48 H48           -1.3236    -1.4164     0.8976 H       
  49 H49            1.3198     5.4266     0.5326 H       
  50 H50            2.6999     4.3027     0.5134 H       
  51 H51            1.2921     4.7918    -2.1561 H       
  52 H52            2.7179     6.8586    -2.5157 H       
  53 H53            3.2898     6.7687    -0.7646 H       
  54 H54            4.2615     4.4665    -1.2002 H       
  55 H55            3.6896     4.5564    -2.9513 H       
@<TRIPOS>BOND
   1    1    2 1
   2    1    6 1
   3    1    8 2
   4    2    3 2
   5    2   23 1
   6    3    4 1
   7    3   10 1
   8    4    5 2
   9    4   28 1
  10    5    6 1
  11    5   29 1
  12    6    9 1
  13    7    8 1
  14    7    9 2
  15    9   24 1
  16   10   11 1
  17   10   30 1
  18   10   31 1
  19   11   12 1
  20   11   16 1
  21   12   13 1
  22   12   32 1
  23   12   33 1
  24   13   14 1
  25   13   34 1
  26   13   35 1
  27   14   15 1
  28   14   17 1
  29   14   36 1
  30   15   16 1
  31   15   37 1
  32   15   38 1
  33   16   39 1
  34   16   40 1
  35   17   18 ar
  36   17   22 ar
  37   18   19 ar
  38   18   41 1
  39   19   20 ar
  40   19   42 1
  41   20   21 ar
  42   20   43 1
  43   21   22 ar
  44   21   44 1
  45   22   45 1
  46   23   46 1
  47   23   47 1
  48   23   48 1
  49   24   25 1
  50   24   49 1
  51   24   50 1
  52   25   26 1
  53   25   27 1
  54   25   51 1
  55   26   27 1
  56   26   52 1
  57   26   53 1
  58   27   54 1
  59   27   55 1

#	End of record

