#	Name: ASD01150507
#	Creating user name:	WinNT
#	Creation time:	15. 06. 2019 19:04

#	Modifying user name:	WinNT
#	Modification time:	15. 06. 2019 19:04

#	Program:	/corina/corina34_cracker 3.40 0067  02.08.2006

@<TRIPOS>MOLECULE
ASD01150507
  38   40    0    0    0
SMALL
NO_CHARGES


@<TRIPOS>ATOM
   1 C1            -0.3205     1.1838    -1.2103 C.ar    
   2 C2            -0.5344    -0.1781    -1.2930 C.ar    
   3 C3             0.8346    -0.5170     0.6453 C.ar    
   4 C4             1.0529     0.8437     0.7335 C.ar    
   5 C5             0.4750     1.6999    -0.1953 C.ar    
   6 N6             0.6942     3.0792    -0.1088 N.am    
   7 C7            -0.3521     3.9215    -0.1702 C.2     
   8 N8            -0.1776     5.2539    -0.0908 N.am    
   9 C9             1.0624     5.7657     0.0534 C.2     
  10 C10            2.2110     4.8496     0.1217 C.2     
  11 N11            1.9990     3.5621     0.0461 N.2     
  12 O12            1.2283     6.9691     0.1256 O.2     
  13 C13           -1.3352     6.1490    -0.1614 C.3     
  14 O14           -1.4747     3.4722    -0.3001 O.2     
  15 C15           -1.9577     6.2740     1.2053 C.2     
  16 O16            3.4719     5.3338     0.2666 O.3     
  17 C17            4.5317     4.3768     0.3244 C.3     
  18 C18            0.0421    -1.0276    -0.3664 C.ar    
  19 N19           -2.8241     5.4479     1.7248 N.2     
  20 C20           -3.1586     5.8720     2.9526 C.2     
  21 C21           -2.4733     7.0039     3.2034 C.2     
  22 N22           -1.7070     7.2562     2.0976 N.pl3   
  23 C23           -0.7931     8.3861     1.9126 C.3     
  24 H24           -0.7676     1.8463    -1.9366 H       
  25 H25           -1.1528    -0.5800    -2.0819 H       
  26 H26            1.2836    -1.1832     1.3671 H       
  27 H27            1.6720     1.2419     1.5239 H       
  28 H28           -1.0138     7.1321    -0.5055 H       
  29 H29           -2.0675     5.7416    -0.8584 H       
  30 H30            4.5457     3.7942    -0.5967 H       
  31 H31            5.4834     4.8953     0.4409 H       
  32 H32            4.3742     3.7111     1.1730 H       
  33 H33           -0.1274    -2.0922    -0.4329 H       
  34 H34           -3.8555     5.3904     3.6225 H       
  35 H35           -2.5169     7.5964     4.1053 H       
  36 H36            0.2193     8.0817     2.1782 H       
  37 H37           -0.8151     8.7044     0.8704 H       
  38 H38           -1.1034     9.2128     2.5517 H       
@<TRIPOS>BOND
   1    1    2 ar
   2    1    5 ar
   3    1   24 1
   4    2   18 ar
   5    2   25 1
   6    3    4 ar
   7    3   18 ar
   8    3   26 1
   9    4    5 ar
  10    4   27 1
  11    5    6 1
  12    6    7 am
  13    6   11 1
  14    7    8 am
  15    7   14 2
  16    8    9 am
  17    8   13 1
  18    9   10 1
  19    9   12 2
  20   10   11 2
  21   10   16 1
  22   13   15 1
  23   13   28 1
  24   13   29 1
  25   15   19 2
  26   15   22 1
  27   16   17 1
  28   17   30 1
  29   17   31 1
  30   17   32 1
  31   18   33 1
  32   19   20 1
  33   20   21 2
  34   20   34 1
  35   21   22 1
  36   21   35 1
  37   22   23 1
  38   23   36 1
  39   23   37 1
  40   23   38 1

#	End of record

