#	Name: ASD09610056
#	Creating user name:	WinNT
#	Creation time:	15. 06. 2019 21:22

#	Modifying user name:	WinNT
#	Modification time:	15. 06. 2019 21:22

#	Program:	/corina/corina34_cracker 3.40 0067  02.08.2006

@<TRIPOS>MOLECULE
ASD09610056
  45   46    0    0    0
SMALL
NO_CHARGES


@<TRIPOS>ATOM
   1 C1            -0.0184     1.5028     0.0103 C.2     
   2 C2             0.0021    -0.0041     0.0020 C.3     
   3 C3             1.4513    -0.4944    -0.0145 C.3     
   4 O4             1.0236     2.1234     0.0037 O.2     
   5 N5            -1.1946     2.1607     0.0195 N.am    
   6 C6             1.4717    -2.0012    -0.0227 C.ar    
   7 C7             1.4696    -2.6846    -1.2249 C.ar    
   8 C8             1.4884    -4.0697    -1.2343 C.ar    
   9 C9             1.5093    -4.7705    -0.0318 C.ar    
  10 C10            1.5113    -4.0798     1.1689 C.ar    
  11 C11            1.4982    -2.6970     1.1711 C.ar    
  12 O12            1.5274    -6.1303    -0.0358 O.3     
  13 C13            1.5483    -6.7826     1.2354 C.3     
  14 C14            1.5658    -8.2412     1.0383 C.1     
  15 C15            1.5797    -9.4046     0.8811 C.1     
  16 O16            1.4859    -4.7433    -2.4157 O.3     
  17 C17            1.4635    -3.9586    -3.6098 C.3     
  18 C18           -1.2145     3.6256     0.0275 C.3     
  19 C19           -2.6419     4.1085     0.0369 C.ar    
  20 C20           -3.2907     4.3235     1.2386 C.ar    
  21 C21           -4.5999     4.7664     1.2478 C.ar    
  22 C22           -5.2611     4.9947     0.0541 C.ar    
  23 C23           -4.6113     4.7794    -1.1481 C.ar    
  24 C24           -3.3002     4.3419    -1.1561 C.ar    
  25 Cl25          -6.9057     5.5505     0.0650 Cl      
  26 H26           -0.4983    -0.3791     0.8948 H       
  27 H27           -0.5153    -0.3696    -0.8850 H       
  28 H28            1.9516    -0.1193    -0.9073 H       
  29 H29            1.9686    -0.1289     0.8726 H       
  30 H30           -2.0280     1.6644     0.0207 H       
  31 H31            1.4530    -2.1385    -2.1565 H       
  32 H32            1.5275    -4.6212     2.1033 H       
  33 H33            1.5042    -2.1596     2.1079 H       
  34 H34            2.4397    -6.4795     1.7847 H       
  35 H35            0.6600    -6.5031     1.8019 H       
  36 H36            1.5922   -10.4450     0.7404 H       
  37 H37            1.4639    -4.6179    -4.4778 H       
  38 H38            0.5648    -3.3419    -3.6225 H       
  39 H39            2.3446    -3.3176    -3.6400 H       
  40 H40           -0.7014     3.9910     0.9171 H       
  41 H41           -0.7098     4.0007    -0.8628 H       
  42 H42           -2.7746     4.1449     2.1703 H       
  43 H43           -5.1068     4.9339     2.1866 H       
  44 H44           -5.1269     4.9575    -2.0802 H       
  45 H45           -2.7914     4.1780    -2.0945 H       
@<TRIPOS>BOND
   1    1    2 1
   2    1    4 2
   3    1    5 am
   4    2    3 1
   5    2   26 1
   6    2   27 1
   7    3    6 1
   8    3   28 1
   9    3   29 1
  10    5   18 1
  11    5   30 1
  12    6    7 ar
  13    6   11 ar
  14    7    8 ar
  15    7   31 1
  16    8    9 ar
  17    8   16 1
  18    9   10 ar
  19    9   12 1
  20   10   11 ar
  21   10   32 1
  22   11   33 1
  23   12   13 1
  24   13   14 1
  25   13   34 1
  26   13   35 1
  27   14   15 3
  28   15   36 1
  29   16   17 1
  30   17   37 1
  31   17   38 1
  32   17   39 1
  33   18   19 1
  34   18   40 1
  35   18   41 1
  36   19   20 ar
  37   19   24 ar
  38   20   21 ar
  39   20   42 1
  40   21   22 ar
  41   21   43 1
  42   22   23 ar
  43   22   25 1
  44   23   24 ar
  45   23   44 1
  46   24   45 1

#	End of record

