#	Name: ASD05503011
#	Creating user name:	WinNT
#	Creation time:	15. 06. 2019 21:01

#	Modifying user name:	WinNT
#	Modification time:	15. 06. 2019 21:01

#	Program:	/corina/corina34_cracker 3.40 0067  02.08.2006

@<TRIPOS>MOLECULE
ASD05503011
  43   44    0    0    0
SMALL
NO_CHARGES


@<TRIPOS>ATOM
   1 C1            -0.1503     1.3616     0.4404 C.ar    
   2 C2            -0.0927    -0.0174     0.2840 C.ar    
   3 C3             1.1375    -0.6543     0.2034 C.ar    
   4 C4             2.3065     0.0891     0.2793 C.ar    
   5 C5             2.2420     1.4683     0.4358 C.ar    
   6 C6             1.0158     2.0992     0.5158 C.ar    
   7 N7            -1.2740    -0.7635     0.2083 N.am    
   8 C8            -1.3339    -1.8519    -0.5844 C.2     
   9 C9            -2.5629    -2.7241    -0.5750 C.3     
  10 O10           -0.3988    -2.1294    -1.3052 O.2     
  11 C11           -2.3737    -3.8823    -1.5566 C.3     
  12 C12           -3.6214    -4.7678    -1.5472 C.3     
  13 N13            3.5483    -0.5491     0.1990 N.am    
  14 C14            4.5814     0.0617    -0.4144 C.2     
  15 C15            5.8607    -0.6513    -0.5903 C.ar    
  16 O16            4.4588     1.2004    -0.8229 O.2     
  17 C17            6.0059    -1.9594    -0.1226 C.ar    
  18 C18            7.2039    -2.6200    -0.2900 C.ar    
  19 C19            8.2658    -1.9926    -0.9203 C.ar    
  20 C20            8.1358    -0.6995    -1.3875 C.ar    
  21 C21            6.9360    -0.0219    -1.2328 C.ar    
  22 O22            6.8069     1.2484    -1.6912 O.3     
  23 C23            7.9489     1.8287    -2.3245 C.3     
  24 H24           -1.1075     1.8584     0.4987 H       
  25 H25            1.1848    -1.7264     0.0821 H       
  26 H26            3.1516     2.0476     0.4954 H       
  27 H27            0.9683     3.1713     0.6374 H       
  28 H28           -2.0497    -0.4975     0.7263 H       
  29 H29           -2.7197    -3.1201     0.4283 H       
  30 H30           -3.4296    -2.1338    -0.8723 H       
  31 H31           -2.2168    -3.4863    -2.5600 H       
  32 H32           -1.5069    -4.4727    -1.2594 H       
  33 H33           -3.4866    -5.5930    -2.2465 H       
  34 H34           -3.7782    -5.1638    -0.5438 H       
  35 H35           -4.4881    -4.1775    -1.8444 H       
  36 H36            3.6662    -1.4313     0.5847 H       
  37 H37            5.1807    -2.4524     0.3697 H       
  38 H38            7.3153    -3.6313     0.0722 H       
  39 H39            9.2010    -2.5177    -1.0469 H       
  40 H40            8.9685    -0.2170    -1.8776 H       
  41 H41            7.7110     2.8436    -2.6432 H       
  42 H42            8.7808     1.8545    -1.6207 H       
  43 H43            8.2259     1.2308    -3.1927 H       
@<TRIPOS>BOND
   1    1    2 ar
   2    1    6 ar
   3    1   24 1
   4    2    3 ar
   5    2    7 1
   6    3    4 ar
   7    3   25 1
   8    4    5 ar
   9    4   13 1
  10    5    6 ar
  11    5   26 1
  12    6   27 1
  13    7    8 am
  14    7   28 1
  15    8    9 1
  16    8   10 2
  17    9   11 1
  18    9   29 1
  19    9   30 1
  20   11   12 1
  21   11   31 1
  22   11   32 1
  23   12   33 1
  24   12   34 1
  25   12   35 1
  26   13   14 am
  27   13   36 1
  28   14   15 1
  29   14   16 2
  30   15   17 ar
  31   15   21 ar
  32   17   18 ar
  33   17   37 1
  34   18   19 ar
  35   18   38 1
  36   19   20 ar
  37   19   39 1
  38   20   21 ar
  39   20   40 1
  40   21   22 1
  41   22   23 1
  42   23   41 1
  43   23   42 1
  44   23   43 1

#	End of record

