#	Name: ASD01510012
#	Creating user name:	WinNT
#	Creation time:	15. 06. 2019 19:21

#	Modifying user name:	WinNT
#	Modification time:	15. 06. 2019 19:21

#	Program:	/corina/corina34_cracker 3.40 0067  02.08.2006

@<TRIPOS>MOLECULE
ASD01510012
  54   56    0    0    0
SMALL
NO_CHARGES


@<TRIPOS>ATOM
   1 C1            -0.0173     1.4248     0.0099 C.3     
   2 O2             0.0021    -0.0041     0.0020 O.3     
   3 C3            -1.1971    -0.6358     0.0101 C.ar    
   4 N4            -2.3267     0.0643     0.0246 N.ar    
   5 C5            -3.5024    -0.5457     0.0321 C.ar    
   6 N6            -3.6012    -1.8665     0.0259 N.ar    
   7 C7            -2.5136    -2.6301     0.0114 C.ar    
   8 C8            -1.2616    -2.0249    -0.0026 C.ar    
   9 I9             0.4867    -3.1790    -0.0264 I       
  10 O10           -2.6232    -3.9811     0.0057 O.3     
  11 C11           -3.9447    -4.5248     0.0158 C.3     
  12 N12           -4.6575     0.2168     0.0473 N.pl3   
  13 C13           -5.9677    -0.4385     0.0557 C.3     
  14 C14           -6.4037    -0.6713     1.4794 C.ar    
  15 C15           -7.1392     0.2936     2.1425 C.ar    
  16 C16           -7.5401     0.0826     3.4475 C.ar    
  17 C17           -7.2041    -1.0987     4.0928 C.ar    
  18 C18           -6.4660    -2.0653     3.4252 C.ar    
  19 C19           -6.0724    -1.8519     2.1184 C.ar    
  20 O20           -7.5969    -1.3085     5.3768 O.3     
  21 C21           -7.2151    -2.5475     5.9778 C.3     
  22 C22           -4.5698     1.6792     0.0548 C.3     
  23 C23           -4.5530     2.1887    -1.3634 C.ar    
  24 C24           -5.7412     2.4937    -2.0012 C.ar    
  25 C25           -5.7285     2.9609    -3.3012 C.ar    
  26 C26           -4.5222     3.1241    -3.9667 C.ar    
  27 C27           -3.3313     2.8173    -3.3244 C.ar    
  28 C28           -3.3491     2.3558    -2.0225 C.ar    
  29 O29           -4.5070     3.5831    -5.2457 O.3     
  30 C30           -3.2289     3.7264    -5.8685 C.3     
  31 H31            1.0053     1.8021     0.0021 H       
  32 H32           -0.5445     1.7859    -0.8732 H       
  33 H33           -0.5275     1.7763     0.9067 H       
  34 H34           -4.4848    -4.1834    -0.8672 H       
  35 H35           -3.8897    -5.6134     0.0098 H       
  36 H36           -4.4674    -4.1924     0.9127 H       
  37 H37           -6.6955     0.1979    -0.4477 H       
  38 H38           -5.8994    -1.3941    -0.4642 H       
  39 H39           -7.4003     1.2131     1.6399 H       
  40 H40           -8.1143     0.8367     3.9652 H       
  41 H41           -6.2032    -2.9857     3.9254 H       
  42 H42           -5.4978    -2.6040     1.5983 H       
  43 H43           -7.6348    -3.3740     5.4044 H       
  44 H44           -6.1281    -2.6269     5.9874 H       
  45 H45           -7.5913    -2.5865     7.0001 H       
  46 H46           -5.4316     2.0921     0.5791 H       
  47 H47           -3.6549     1.9857     0.5619 H       
  48 H48           -6.6801     2.3662    -1.4829 H       
  49 H49           -6.6569     3.1987    -3.7992 H       
  50 H50           -2.3910     2.9435    -3.8403 H       
  51 H51           -2.4223     2.1168    -1.5220 H       
  52 H52           -2.6234     4.4302    -5.2975 H       
  53 H53           -2.7290     2.7583    -5.8989 H       
  54 H54           -3.3594     4.0999    -6.8841 H       
@<TRIPOS>BOND
   1    1    2 1
   2    1   31 1
   3    1   32 1
   4    1   33 1
   5    2    3 1
   6    3    4 ar
   7    3    8 ar
   8    4    5 ar
   9    5    6 ar
  10    5   12 1
  11    6    7 ar
  12    7    8 ar
  13    7   10 1
  14    8    9 1
  15   10   11 1
  16   11   34 1
  17   11   35 1
  18   11   36 1
  19   12   13 1
  20   12   22 1
  21   13   14 1
  22   13   37 1
  23   13   38 1
  24   14   15 ar
  25   14   19 ar
  26   15   16 ar
  27   15   39 1
  28   16   17 ar
  29   16   40 1
  30   17   18 ar
  31   17   20 1
  32   18   19 ar
  33   18   41 1
  34   19   42 1
  35   20   21 1
  36   21   43 1
  37   21   44 1
  38   21   45 1
  39   22   23 1
  40   22   46 1
  41   22   47 1
  42   23   24 ar
  43   23   28 ar
  44   24   25 ar
  45   24   48 1
  46   25   26 ar
  47   25   49 1
  48   26   27 ar
  49   26   29 1
  50   27   28 ar
  51   27   50 1
  52   28   51 1
  53   29   30 1
  54   30   52 1
  55   30   53 1
  56   30   54 1

#	End of record

