#	Name: ASD01411110
#	Creating user name:	WinNT
#	Creation time:	15. 06. 2019 19:19

#	Modifying user name:	WinNT
#	Modification time:	15. 06. 2019 19:19

#	Program:	/corina/corina34_cracker 3.40 0067  02.08.2006

@<TRIPOS>MOLECULE
ASD01411110
  50   52    0    0    0
SMALL
NO_CHARGES


@<TRIPOS>ATOM
   1 C1             0.5440    -0.5268     0.1693 C.3     
   2 C2             1.1123    -1.8542     0.6916 C.3     
   3 O3             1.5771     0.4622     0.1582 O.3     
   4 C4             1.8936    -1.5600     1.9476 C.2     
   5 C5             1.9840     0.9065     1.4585 C.3     
   6 C6             2.2896    -0.3112     2.2986 C.2     
   7 C7             2.3577    -2.4579     2.9736 C.ar    
   8 C8             0.8547     1.7103     2.1062 C.3     
   9 N9             2.9733    -0.3592     3.4790 N.pl3   
  10 C10            2.2482    -3.8544     3.1495 C.ar    
  11 C11            3.0364    -1.6506     3.9233 C.ar    
  12 C12            2.8403    -4.3882     4.3002 C.ar    
  13 C13            3.6136    -2.2173     5.0565 C.ar    
  14 C14            3.4970    -3.5901     5.2147 C.ar    
  15 C15            0.5182     2.9165     1.2272 C.3     
  16 C16            3.2351     1.7789     1.3379 C.3     
  17 N17            3.5587     2.3521     2.6467 N.am    
  18 C18            4.4020     3.3998     2.7336 C.2     
  19 O19            4.8929     3.8682     1.7284 O.2     
  20 C20            4.7349     3.9894     4.0800 C.3     
  21 C21            4.3371    -1.3713     6.0724 C.3     
  22 C22           -0.6936     3.6483     1.8076 C.3     
  23 C23            4.3898     0.9376     0.8585 C.2     
  24 O24            5.2305     0.5633     1.6414 O.2     
  25 O25            4.4844     0.6042    -0.4383 O.3     
  26 C26            1.5663    -4.6819     2.2003 C.1     
  27 N27            1.0254    -5.3384     1.4473 N.1     
  28 H28            0.1643    -0.6671    -0.8427 H       
  29 H29           -0.2669    -0.1978     0.8193 H       
  30 H30            0.2968    -2.5415     0.9168 H       
  31 H31            1.7703    -2.2941    -0.0578 H       
  32 H32           -0.0277     1.0787     2.2097 H       
  33 H33            1.1722     2.0551     3.0902 H       
  34 H34            3.3568     0.4070     3.9337 H       
  35 H35            2.7815    -5.4520     4.4770 H       
  36 H36            3.9366    -4.0520     6.0864 H       
  37 H37            1.3717     3.5938     1.1974 H       
  38 H38            0.2882     2.5772     0.2172 H       
  39 H39            3.0503     2.5825     0.6250 H       
  40 H40            3.1661     1.9775     3.4507 H       
  41 H41            4.2038     3.4412     4.8581 H       
  42 H42            5.8087     3.9170     4.2529 H       
  43 H43            4.4330     5.0366     4.1027 H       
  44 H44            3.6322    -1.0335     6.8321 H       
  45 H45            5.1233    -1.9615     6.5430 H       
  46 H46            4.7790    -0.5068     5.5768 H       
  47 H47           -1.5471     2.9710     1.8374 H       
  48 H48           -0.4637     3.9876     2.8176 H       
  49 H49           -0.9333     4.5077     1.1814 H       
  50 H50            5.2801     0.1278    -0.7122 H       
@<TRIPOS>BOND
   1    1    2 1
   2    1    3 1
   3    1   28 1
   4    1   29 1
   5    2    4 1
   6    2   30 1
   7    2   31 1
   8    3    5 1
   9    4    6 2
  10    4    7 1
  11    5    8 1
  12    5   16 1
  13    5    6 1
  14    6    9 1
  15    7   10 ar
  16    7   11 ar
  17    8   15 1
  18    8   32 1
  19    8   33 1
  20    9   11 1
  21    9   34 1
  22   10   12 ar
  23   10   26 1
  24   11   13 ar
  25   12   14 ar
  26   12   35 1
  27   13   14 ar
  28   13   21 1
  29   14   36 1
  30   15   22 1
  31   15   37 1
  32   15   38 1
  33   16   17 1
  34   16   23 1
  35   16   39 1
  36   17   18 am
  37   17   40 1
  38   18   19 2
  39   18   20 1
  40   20   41 1
  41   20   42 1
  42   20   43 1
  43   21   44 1
  44   21   45 1
  45   21   46 1
  46   22   47 1
  47   22   48 1
  48   22   49 1
  49   23   24 2
  50   23   25 1
  51   25   50 1
  52   26   27 3

#	End of record

