#	Name: ASD01910324
#	Creating user name:	WinNT
#	Creation time:	15. 06. 2019 19:55

#	Modifying user name:	WinNT
#	Modification time:	15. 06. 2019 19:55

#	Program:	/corina/corina34_cracker 3.40 0067  02.08.2006

@<TRIPOS>MOLECULE
ASD01910324
  42   44    0    0    0
SMALL
NO_CHARGES


@<TRIPOS>ATOM
   1 C1            -0.0997     1.1938     0.3707 C.ar    
   2 C2            -0.0435    -0.0779    -0.1830 C.ar    
   3 C3            -1.1879    -0.6672    -0.6965 C.ar    
   4 C4            -2.3900     0.0067    -0.6604 C.ar    
   5 C5            -2.4545     1.2877    -0.1043 C.ar    
   6 C6            -1.2990     1.8762     0.4172 C.ar    
   7 C7            -3.7007     1.9921    -0.0643 C.1     
   8 C8            -4.7223     2.5695    -0.0316 C.1     
   9 C9            -5.9685     3.2738     0.0084 C.ar    
  10 C10           -6.0304     4.5561     0.5656 C.ar    
  11 C11           -7.2191     5.2272     0.6034 C.ar    
  12 C12           -8.3743     4.6333     0.0861 C.ar    
  13 C13           -8.3132     3.3522    -0.4708 C.ar    
  14 C14           -7.1239     2.6825    -0.5149 C.ar    
  15 C15           -9.6591     5.3589     0.1282 C.2     
  16 O16           -9.7275     6.4987    -0.2895 O.2     
  17 N17          -10.7563     4.7579     0.6297 N.am    
  18 C18          -12.0217     5.4940     0.7549 C.3     
  19 C19          -12.5175     5.3800     2.1999 C.3     
  20 C20          -12.6085     3.9026     2.5887 C.3     
  21 C21          -11.2203     3.2642     2.5025 C.3     
  22 C22          -10.7113     3.3526     1.0558 C.3     
  23 O23          -13.1015     3.7916     3.9254 O.3     
  24 F24            1.1315    -0.7435    -0.2219 F       
  25 F25            1.0196     1.7622     0.8699 F       
  26 H26           -1.1378    -1.6567    -1.1264 H       
  27 H27           -3.2806    -0.4542    -1.0614 H       
  28 H28           -1.3426     2.8655     0.8484 H       
  29 H29           -5.1382     5.0147     0.9659 H       
  30 H30           -7.2670     6.2167     1.0334 H       
  31 H31           -9.2060     2.8941    -0.8702 H       
  32 H32           -7.0769     1.6930    -0.9450 H       
  33 H33          -11.8606     6.5428     0.5055 H       
  34 H34          -12.7622     5.0652     0.0796 H       
  35 H35          -11.8199     5.8889     2.8651 H       
  36 H36          -13.5022     5.8397     2.2840 H       
  37 H37          -13.2873     3.3891     1.9077 H       
  38 H38          -10.5349     3.7930     3.1649 H       
  39 H39          -11.2818     2.2179     2.8021 H       
  40 H40          -11.3459     2.7481     0.4076 H       
  41 H41           -9.6846     2.9898     1.0068 H       
  42 H42          -13.1852     2.8808     4.2393 H       
@<TRIPOS>BOND
   1    1    2 ar
   2    1   25 1
   3    1    6 ar
   4    2    3 ar
   5    2   24 1
   6    3    4 ar
   7    3   26 1
   8    4    5 ar
   9    4   27 1
  10    5    6 ar
  11    5    7 1
  12    6   28 1
  13    7    8 3
  14    8    9 1
  15    9   10 ar
  16    9   14 ar
  17   10   11 ar
  18   10   29 1
  19   11   12 ar
  20   11   30 1
  21   12   13 ar
  22   12   15 1
  23   13   14 ar
  24   13   31 1
  25   14   32 1
  26   15   16 2
  27   15   17 am
  28   17   18 1
  29   17   22 1
  30   18   19 1
  31   18   33 1
  32   18   34 1
  33   19   20 1
  34   19   35 1
  35   19   36 1
  36   20   21 1
  37   20   23 1
  38   20   37 1
  39   21   22 1
  40   21   38 1
  41   21   39 1
  42   22   40 1
  43   22   41 1
  44   23   42 1

#	End of record

