#	Name: ASD01478019
#	Creating user name:	WinNT
#	Creation time:	15. 06. 2019 19:21

#	Modifying user name:	WinNT
#	Modification time:	15. 06. 2019 19:21

#	Program:	/corina/corina34_cracker 3.40 0067  02.08.2006

@<TRIPOS>MOLECULE
ASD01478019
  81   84    0    0    0
SMALL
NO_CHARGES


@<TRIPOS>ATOM
   1 C1             1.5819     1.3562     1.9364 C.3     
   2 C2             3.0027     2.1480     0.1898 C.2     
   3 O3             2.7960     2.0322     1.5151 O.3     
   4 N4             4.1101     2.7646    -0.2682 N.am    
   5 O5             2.1908     1.6965    -0.5935 O.2     
   6 C6             3.6064     4.1300    -2.2338 C.3     
   7 C7             4.3351     2.8906    -1.7103 C.3     
   8 C8             5.8344     3.0276    -1.9826 C.3     
   9 C9             6.0800     3.0339    -3.4927 C.3     
  10 N10            7.5216     3.0170    -3.7531 N.am    
  11 S11            8.2967     1.5796    -4.0276 S.o2    
  12 C12            8.2447     1.2823    -5.7636 C.ar    
  13 C13            9.2619     1.7503    -6.5747 C.ar    
  14 C14            9.2235     1.5185    -7.9360 C.ar    
  15 C15            8.1631     0.8154    -8.4891 C.ar    
  16 C16            7.1437     0.3468    -7.6731 C.ar    
  17 C17            7.1896     0.5764    -6.3116 C.ar    
  18 O18            9.6626     1.7907    -3.6974 O.2     
  19 O19            7.4980     0.5713    -3.4237 O.2     
  20 C20            8.2775     4.2718    -3.7706 C.3     
  21 C21            7.7859     5.1474    -4.9249 C.3     
  22 C22            8.4675     6.5153    -4.8537 C.3     
  23 C23            8.1283     4.4756    -6.2562 C.3     
  24 O24            6.3114     4.2503    -1.4173 O.3     
  25 C25            1.8449    -0.1535     2.0886 C.3     
  26 O26            2.7642    -0.4311     3.1392 O.3     
  27 C27            2.4602     0.1161     4.4348 C.3     
  28 C28            2.3581     1.6176     4.2560 C.3     
  29 C29            1.1532     1.8614     3.2984 C.3     
  30 C30            1.9147     2.4402     5.4662 C.3     
  31 N31            1.3530     3.6782     4.8520 N.3     
  32 C32            0.9189     3.3554     3.4664 C.3     
  33 O33            8.1228     0.5865    -9.8281 O.3     
  34 C34            7.0010    -0.1442   -10.3278 C.3     
  35 C35            2.1194     3.9419    -2.0771 C.ar    
  36 C36            1.4901     4.3472    -0.9150 C.ar    
  37 C37            0.1261     4.1747    -0.7713 C.ar    
  38 C38           -0.6087     3.5974    -1.7899 C.ar    
  39 C39            0.0205     3.1929    -2.9524 C.ar    
  40 C40            1.3838     3.3694    -3.0979 C.ar    
  41 H41            0.7891     1.5252     1.2076 H       
  42 H42            4.7583     3.1250     0.3571 H       
  43 H43            3.9238     5.0048    -1.6663 H       
  44 H44            3.8454     4.2740    -3.2875 H       
  45 H45            3.9534     2.0039    -2.2164 H       
  46 H46            6.3637     2.1881    -1.5319 H       
  47 H47            5.6198     2.1525    -3.9394 H       
  48 H48            5.6426     3.9323    -3.9283 H       
  49 H49           10.0870     2.2979    -6.1437 H       
  50 H50           10.0181     1.8846    -8.5692 H       
  51 H51            6.3172    -0.2008    -8.1013 H       
  52 H52            6.3963     0.2118    -5.6759 H       
  53 H53            8.1303     4.7979    -2.8273 H       
  54 H54            9.3375     4.0557    -3.9044 H       
  55 H55            6.7060     5.2752    -4.8497 H       
  56 H56            9.5473     6.3875    -4.9290 H       
  57 H57            8.1172     7.1391    -5.6761 H       
  58 H58            8.2235     6.9939    -3.9052 H       
  59 H59            9.2087     4.3541    -6.3346 H       
  60 H60            7.6484     3.4982    -6.3041 H       
  61 H61            7.7719     5.0961    -7.0785 H       
  62 H62            5.9490     5.0440    -1.8341 H       
  63 H63            0.9021    -0.6580     2.3000 H       
  64 H64            2.2492    -0.5390     1.1526 H       
  65 H65            1.5118    -0.2823     4.7952 H       
  66 H66            3.2582    -0.1229     5.1377 H       
  67 H67            3.2777     2.0133     3.8249 H       
  68 H68            0.2844     1.3015     3.6447 H       
  69 H69            1.1486     1.9098     6.0318 H       
  70 H70            2.7672     2.6791     6.1020 H       
  71 H71            0.5835     4.0356     5.3981 H       
  72 H72            1.5160     3.9135     2.7453 H       
  73 H73           -0.1387     3.5871     3.3398 H       
  74 H74            6.9718    -1.1289    -9.8613 H       
  75 H75            6.0830     0.3955   -10.0952 H       
  76 H76            7.0927    -0.2566   -11.4081 H       
  77 H77            2.0641     4.7983    -0.1191 H       
  78 H78           -0.3654     4.4907     0.1370 H       
  79 H79           -1.6742     3.4619    -1.6773 H       
  80 H80           -0.5535     2.7415    -3.7481 H       
  81 H81            1.8747     3.0568    -4.0076 H       
@<TRIPOS>BOND
   1    1   25 1
   2    1    3 1
   3    1   29 1
   4    1   41 1
   5    2    3 1
   6    2    4 am
   7    2    5 2
   8    4    7 1
   9    4   42 1
  10    6    7 1
  11    6   35 1
  12    6   43 1
  13    6   44 1
  14    7    8 1
  15    7   45 1
  16    8    9 1
  17    8   24 1
  18    8   46 1
  19    9   10 1
  20    9   47 1
  21    9   48 1
  22   10   11 am
  23   10   20 1
  24   11   12 1
  25   11   18 2
  26   11   19 2
  27   12   13 ar
  28   12   17 ar
  29   13   14 ar
  30   13   49 1
  31   14   15 ar
  32   14   50 1
  33   15   16 ar
  34   15   33 1
  35   16   17 ar
  36   16   51 1
  37   17   52 1
  38   20   21 1
  39   20   53 1
  40   20   54 1
  41   21   22 1
  42   21   23 1
  43   21   55 1
  44   22   56 1
  45   22   57 1
  46   22   58 1
  47   23   59 1
  48   23   60 1
  49   23   61 1
  50   24   62 1
  51   25   26 1
  52   25   63 1
  53   25   64 1
  54   26   27 1
  55   27   28 1
  56   27   65 1
  57   27   66 1
  58   28   29 1
  59   28   30 1
  60   28   67 1
  61   29   32 1
  62   29   68 1
  63   30   31 1
  64   30   69 1
  65   30   70 1
  66   31   32 1
  67   31   71 1
  68   32   72 1
  69   32   73 1
  70   33   34 1
  71   34   74 1
  72   34   75 1
  73   34   76 1
  74   35   36 ar
  75   35   40 ar
  76   36   37 ar
  77   36   77 1
  78   37   38 ar
  79   37   78 1
  80   38   39 ar
  81   38   79 1
  82   39   40 ar
  83   39   80 1
  84   40   81 1

#	End of record

