#	Name: ASD01916910
#	Creating user name:	WinNT
#	Creation time:	15. 06. 2019 20:08

#	Modifying user name:	WinNT
#	Modification time:	15. 06. 2019 20:08

#	Program:	/corina/corina34_cracker 3.40 0067  02.08.2006

@<TRIPOS>MOLECULE
ASD01916910
  59   63    0    0    0
SMALL
NO_CHARGES


@<TRIPOS>ATOM
   1 C1            -0.0441     1.3984     0.6016 C.ar    
   2 C2             0.0021     0.0219     0.4309 C.ar    
   3 C3            -1.1562    -0.6850     0.1662 C.ar    
   4 C4            -2.3649    -0.0256     0.0698 C.ar    
   5 C5            -2.4198     1.3566     0.2399 C.ar    
   6 C6            -1.2541     2.0675     0.5121 C.ar    
   7 C7            -3.7182     2.0681     0.1361 C.2     
   8 N8            -3.8957     3.3862     0.2790 N.2     
   9 N9            -4.8801     1.5054    -0.1168 N.2     
  10 N10           -5.8379     2.5323    -0.1268 N.pl3   
  11 C11           -5.1691     3.6818     0.1251 C.2     
  12 C12           -5.7649     5.0332     0.2125 C.ar    
  13 C13           -7.2759     2.3884    -0.3668 C.3     
  14 C14           -7.9763     2.1007     0.9362 C.2     
  15 O15           -7.3372     2.0234     1.9640 O.2     
  16 N16           -9.3129     1.9293     0.9592 N.am    
  17 C17          -10.0162     1.6477     2.2199 C.3     
  18 C18          -11.1805     2.6343     2.3587 C.3     
  19 N19          -12.0175     2.5717     1.1531 N.3     
  20 C20          -11.2676     2.9908    -0.0386 C.3     
  21 C21          -10.1077     2.0248    -0.2746 C.3     
  22 C22          -13.1666     3.3277     1.3072 C.ar    
  23 N23          -14.0407     3.3857     0.3133 N.ar    
  24 N24          -13.3689     3.9717     2.4473 N.ar    
  25 C25          -15.1490     4.0986     0.4283 C.ar    
  26 C26          -15.3896     4.7891     1.6057 C.ar    
  27 C27          -14.4568     4.7024     2.6272 C.ar    
  28 C28           -7.1323     5.1815     0.4471 C.ar    
  29 O29            1.0967     2.0895     0.8622 O.3     
  30 C30            2.3073     1.3349     0.9466 C.3     
  31 C31           -7.6828     6.4434     0.5277 C.ar    
  32 C32           -6.8803     7.5631     0.3757 C.ar    
  33 C33           -5.5217     7.4211     0.1421 C.ar    
  34 C34           -4.9603     6.1637     0.0664 C.ar    
  35 F35           -7.4245     8.7971     0.4551 F       
  36 H36            0.9455    -0.4985     0.5048 H       
  37 H37           -1.1151    -1.7562     0.0342 H       
  38 H38           -3.2678    -0.5805    -0.1378 H       
  39 H39           -1.2915     3.1386     0.6447 H       
  40 H40           -7.6672     3.3119    -0.7935 H       
  41 H41           -7.4479     1.5659    -1.0611 H       
  42 H42          -10.4004     0.6277     2.2050 H       
  43 H43           -9.3299     1.7712     3.0576 H       
  44 H44          -11.7787     2.3706     3.2308 H       
  45 H45          -10.7890     3.6446     2.4776 H       
  46 H46          -11.9290     2.9857    -0.9050 H       
  47 H47          -10.8748     3.9961     0.1137 H       
  48 H48           -9.4824     2.3951    -1.0871 H       
  49 H49          -10.4978     1.0394    -0.5290 H       
  50 H50          -15.8577     4.1423    -0.3855 H       
  51 H51          -16.2865     5.3787     1.7262 H       
  52 H52          -14.6144     5.2280     3.5574 H       
  53 H53           -7.7586     4.3096     0.5650 H       
  54 H54            3.1398     2.0060     1.1583 H       
  55 H55            2.2217     0.5989     1.7461 H       
  56 H56            2.4839     0.8242     0.0000 H       
  57 H57           -8.7411     6.5593     0.7092 H       
  58 H58           -4.9006     8.2968     0.0240 H       
  59 H59           -3.9014     6.0541    -0.1153 H       
@<TRIPOS>BOND
   1    1    2 ar
   2    1   29 1
   3    1    6 ar
   4    2    3 ar
   5    2   36 1
   6    3    4 ar
   7    3   37 1
   8    4    5 ar
   9    4   38 1
  10    5    6 ar
  11    5    7 1
  12    6   39 1
  13    7    8 1
  14    7    9 2
  15    8   11 2
  16    9   10 1
  17   10   11 1
  18   10   13 1
  19   11   12 1
  20   12   28 ar
  21   12   34 ar
  22   13   14 1
  23   13   40 1
  24   13   41 1
  25   14   15 2
  26   14   16 am
  27   16   17 1
  28   16   21 1
  29   17   18 1
  30   17   42 1
  31   17   43 1
  32   18   19 1
  33   18   44 1
  34   18   45 1
  35   19   20 1
  36   19   22 1
  37   20   21 1
  38   20   46 1
  39   20   47 1
  40   21   48 1
  41   21   49 1
  42   22   23 ar
  43   22   24 ar
  44   23   25 ar
  45   24   27 ar
  46   25   26 ar
  47   25   50 1
  48   26   27 ar
  49   26   51 1
  50   27   52 1
  51   28   31 ar
  52   28   53 1
  53   29   30 1
  54   30   54 1
  55   30   55 1
  56   30   56 1
  57   31   32 ar
  58   31   57 1
  59   32   33 ar
  60   32   35 1
  61   33   34 ar
  62   33   58 1
  63   34   59 1

#	End of record

