#	Name: ASD05430121
#	Creating user name:	WinNT
#	Creation time:	15. 06. 2019 20:59

#	Modifying user name:	WinNT
#	Modification time:	15. 06. 2019 20:59

#	Program:	/corina/corina34_cracker 3.40 0067  02.08.2006

@<TRIPOS>MOLECULE
ASD05430121
  63   68    0    0    0
SMALL
NO_CHARGES


@<TRIPOS>ATOM
   1 F1             9.9336     4.6239    -4.7788 F       
   2 C2             0.1394     1.2276    -0.9406 C.ar    
   3 C3             0.0191    -0.0128    -0.3148 C.ar    
   4 C4             1.0855    -0.5384     0.4034 C.ar    
   5 C5             2.2672     0.1635     0.5014 C.ar    
   6 C6             2.3951     1.4081    -0.1237 C.ar    
   7 C7             1.3218     1.9370    -0.8470 C.ar    
   8 C8             4.9276    -0.0061    -0.1051 C.3     
   9 C9             4.8270     1.5011     0.0679 C.2     
  10 C10            3.6566     2.1597    -0.0198 C.2     
  11 C11            6.1624    -0.3097    -0.9624 C.3     
  12 C12            7.4691     0.1693    -0.3190 C.3     
  13 N13            7.3271     1.5710     0.0655 N.pl3   
  14 C14            6.1066     2.1930     0.3402 C.2     
  15 C15            8.7790     3.1423    -1.1158 C.ar    
  16 C16            9.3141     4.4136    -1.2092 C.ar    
  17 C17            9.7022     4.9120    -2.4383 C.ar    
  18 C18            9.5549     4.1376    -3.5766 C.ar    
  19 C19            9.0189     2.8644    -3.4819 C.ar    
  20 C20            8.6364     2.3662    -2.2509 C.ar    
  21 N21           -1.1808    -0.7305    -0.4103 N.pl3   
  22 C22           -1.3168    -2.0464    -0.7702 C.2     
  23 C23           -2.6333    -2.3273    -0.7310 C.2     
  24 N24           -3.2875    -1.2174    -0.3581 N.2     
  25 C25           -2.4281    -0.2555    -0.1582 C.2     
  26 C26           -3.2627    -3.6586    -1.0512 C.3     
  27 N27            6.2980     3.3634     0.8496 N.2     
  28 C28            8.3567     2.5998     0.2252 C.3     
  29 O29            7.6882     3.6179     0.9990 O.3     
  30 C30            9.5627     2.0436     0.9849 C.3     
  31 O31           10.5500     3.0670     1.1260 O.3     
  32 C32            6.2236    -1.7668    -1.4254 C.3     
  33 S33            7.0488    -1.2424    -2.9538 S.3     
  34 C34            6.0087     0.1433    -2.4153 C.3     
  35 C35           -0.7113     3.0118    -2.2623 C.3     
  36 O36           -0.9045     1.7365    -1.6474 O.3     
  37 H37            0.9881    -1.4994     0.8866 H       
  38 H38            3.0945    -0.2473     1.0610 H       
  39 H39            1.4166     2.8976    -1.3315 H       
  40 H40            5.0310    -0.4820     0.8700 H       
  41 H41            4.0331    -0.3793    -0.6039 H       
  42 H42            3.6429     3.2396    -0.0141 H       
  43 H43            7.6814    -0.4314     0.5654 H       
  44 H44            8.2857     0.0685    -1.0339 H       
  45 H45            9.4285     5.0176    -0.3212 H       
  46 H46           10.1198     5.9053    -2.5111 H       
  47 H47            8.9036     2.2595    -4.3691 H       
  48 H48            8.2183     1.3731    -2.1768 H       
  49 H49           -0.5210    -2.7269    -1.0347 H       
  50 H50           -2.6690     0.7514     0.1495 H       
  51 H51           -3.3256    -4.2585    -0.1433 H       
  52 H52           -4.2639    -3.5002    -1.4520 H       
  53 H53           -2.6539    -4.1801    -1.7898 H       
  54 H54            9.2461     1.7056     1.9716 H       
  55 H55            9.9853     1.2048     0.4317 H       
  56 H56           11.3445     2.7844     1.5993 H       
  57 H57            6.8526    -2.3918    -0.7916 H       
  58 H58            5.2398    -2.2034    -1.5977 H       
  59 H59            4.9833     0.0760    -2.7789 H       
  60 H60            6.4577     1.1172    -2.6103 H       
  61 H61           -1.6186     3.3005    -2.7930 H       
  62 H62           -0.4866     3.7542    -1.4964 H       
  63 H63            0.1186     2.9537    -2.9665 H       
@<TRIPOS>BOND
   1    1   18 1
   2    2    3 ar
   3    2    7 ar
   4    2   36 1
   5    3    4 ar
   6    3   21 1
   7    4    5 ar
   8    4   37 1
   9    5    6 ar
  10    5   38 1
  11    6    7 ar
  12    6   10 1
  13    7   39 1
  14    8    9 1
  15    8   11 1
  16    8   40 1
  17    8   41 1
  18    9   10 2
  19    9   14 1
  20   10   42 1
  21   11   12 1
  22   11   32 1
  23   11   34 1
  24   12   13 1
  25   12   43 1
  26   12   44 1
  27   13   14 1
  28   13   28 1
  29   14   27 2
  30   15   16 ar
  31   15   28 1
  32   15   20 ar
  33   16   17 ar
  34   16   45 1
  35   17   18 ar
  36   17   46 1
  37   18   19 ar
  38   19   20 ar
  39   19   47 1
  40   20   48 1
  41   21   22 1
  42   21   25 1
  43   22   23 2
  44   22   49 1
  45   23   24 1
  46   23   26 1
  47   24   25 2
  48   25   50 1
  49   26   51 1
  50   26   52 1
  51   26   53 1
  52   27   29 1
  53   28   29 1
  54   28   30 1
  55   30   31 1
  56   30   54 1
  57   30   55 1
  58   31   56 1
  59   32   33 1
  60   32   57 1
  61   32   58 1
  62   33   34 1
  63   34   59 1
  64   34   60 1
  65   35   36 1
  66   35   61 1
  67   35   62 1
  68   35   63 1

#	End of record

