#	Name: ASD03091984
#	Creating user name:	WinNT
#	Creation time:	15. 06. 2019 20:31

#	Modifying user name:	WinNT
#	Modification time:	15. 06. 2019 20:31

#	Program:	/corina/corina34_cracker 3.40 0067  02.08.2006

@<TRIPOS>MOLECULE
ASD03091984
  40   42    0    0    0
SMALL
NO_CHARGES


@<TRIPOS>ATOM
   1 C1             1.0211     1.4881    -0.2106 C.3     
   2 C2             0.9112    -0.0147    -0.1870 C.2     
   3 C3             0.6583    -0.8585    -1.2870 C.2     
   4 C4             0.6567    -2.1126    -0.7454 C.2     
   5 N5             0.4517    -3.3073    -1.4155 N.pl3   
   6 C6             0.4803    -4.4867    -0.7311 C.2     
   7 C7             0.2783    -5.6638    -1.3913 C.2     
   8 C8             0.3090    -6.9327    -0.6550 C.2     
   9 O9             0.5147    -6.9353     0.5446 O.2     
  10 N10            0.1095    -8.0952    -1.3070 N.am    
  11 C11            0.2351    -9.3103    -0.6250 C.ar    
  12 C12            0.7644   -10.4195    -1.2717 C.ar    
  13 C13            0.8877   -11.6176    -0.5960 C.ar    
  14 C14            0.4840   -11.7136     0.7242 C.ar    
  15 Cl15           0.6404   -13.2212     1.5706 Cl      
  16 C16           -0.0437   -10.6099     1.3710 C.ar    
  17 C17           -0.1640    -9.4079     0.7016 C.ar    
  18 C18            0.0291    -5.6606    -2.8445 C.2     
  19 C19            0.9019    -5.2757    -3.8296 C.2     
  20 C20            0.1735    -5.4657    -5.0193 C.2     
  21 C21            0.6548    -5.1982    -6.4221 C.3     
  22 N22           -0.9983    -5.9190    -4.6712 N.2     
  23 O23           -1.0985    -6.0402    -3.4725 O.3     
  24 O24            0.8943    -1.9550     0.5667 O.3     
  25 N25            1.0370    -0.7892     0.8538 N.2     
  26 H26            2.0567     1.7738    -0.3949 H       
  27 H27            0.3878     1.8863    -1.0034 H       
  28 H28            0.6982     1.8911     0.7493 H       
  29 H29            0.5021    -0.5788    -2.3183 H       
  30 H30            0.2878    -3.3052    -2.3716 H       
  31 H31            0.6628    -4.4891     0.3334 H       
  32 H32           -0.1212    -8.0894    -2.2492 H       
  33 H33            1.0789   -10.3453    -2.3022 H       
  34 H34            1.2992   -12.4805    -1.0985 H       
  35 H35           -0.3583   -10.6876     2.4012 H       
  36 H36           -0.5721    -8.5457     1.2081 H       
  37 H37            1.9125    -4.9113    -3.7186 H       
  38 H38            1.1241    -6.0967    -6.8228 H       
  39 H39           -0.1917    -4.9197    -7.0498 H       
  40 H40            1.3802    -4.3847    -6.4084 H       
@<TRIPOS>BOND
   1    1    2 1
   2    1   26 1
   3    1   27 1
   4    1   28 1
   5    2   25 2
   6    2    3 1
   7    3    4 2
   8    3   29 1
   9    4    5 1
  10    4   24 1
  11    5    6 1
  12    5   30 1
  13    6    7 2
  14    6   31 1
  15    7    8 1
  16    7   18 1
  17    8    9 2
  18    8   10 am
  19   10   11 1
  20   10   32 1
  21   11   17 ar
  22   11   12 ar
  23   12   13 ar
  24   12   33 1
  25   13   14 ar
  26   13   34 1
  27   14   15 1
  28   14   16 ar
  29   16   17 ar
  30   16   35 1
  31   17   36 1
  32   18   23 1
  33   18   19 2
  34   19   20 1
  35   19   37 1
  36   20   21 1
  37   20   22 2
  38   21   38 1
  39   21   39 1
  40   21   40 1
  41   22   23 1
  42   24   25 1

#	End of record

