#	Name: ASD05503061
#	Creating user name:	WinNT
#	Creation time:	15. 06. 2019 21:01

#	Modifying user name:	WinNT
#	Modification time:	15. 06. 2019 21:01

#	Program:	/corina/corina34_cracker 3.40 0067  02.08.2006

@<TRIPOS>MOLECULE
ASD05503061
  40   42    0    0    0
SMALL
NO_CHARGES


@<TRIPOS>ATOM
   1 C1             0.0959     1.1633     0.2088 C.ar    
   2 C2             0.1708    -0.2236     0.2218 C.ar    
   3 C3             1.4050    -0.8513     0.1302 C.ar    
   4 C4             2.5607    -0.0907     0.0259 C.ar    
   5 C5             2.4789     1.2965     0.0135 C.ar    
   6 C6             1.2487     1.9181     0.1048 C.ar    
   7 N7            -0.9970    -0.9871     0.3275 N.am    
   8 C8            -1.9572    -0.7890    -0.5765 C.2     
   9 N9             3.8065    -0.7193    -0.0661 N.am    
  10 C10            4.7828    -0.1736    -0.8181 C.2     
  11 C11            6.1356    -0.7678    -0.8172 C.ar    
  12 C12            6.4061    -1.8944    -0.0386 C.ar    
  13 C13            7.6711    -2.4445    -0.0426 C.ar    
  14 C14            8.6714    -1.8825    -0.8160 C.ar    
  15 C15            8.4115    -0.7658    -1.5899 C.ar    
  16 C16            7.1485    -0.2082    -1.6000 C.ar    
  17 Br17           6.7947     1.3184    -2.6585 Br      
  18 O18            4.5503     0.8076    -1.4973 O.2     
  19 C19           -3.2780    -1.5032    -0.5530 C.3     
  20 C20           -3.1834    -2.7441     0.3382 C.3     
  21 C21           -2.5455    -2.3357     1.6715 C.3     
  22 C22           -1.0854    -1.9531     1.4154 C.3     
  23 O23           -1.7529     0.0110    -1.4649 O.2     
  24 H24           -0.8647     1.6523     0.2755 H       
  25 H25            1.4659    -1.9295     0.1404 H       
  26 H26            3.3781     1.8892    -0.0676 H       
  27 H27            1.1878     2.9963     0.0953 H       
  28 H28            3.9680    -1.5481     0.4113 H       
  29 H29            5.6266    -2.3342     0.5660 H       
  30 H30            7.8814    -3.3159     0.5598 H       
  31 H31            9.6599    -2.3176    -0.8151 H       
  32 H32            9.1971    -0.3318    -2.1907 H       
  33 H33           -4.0445    -0.8342    -0.1619 H       
  34 H34           -3.5448    -1.8045    -1.5660 H       
  35 H35           -4.1812    -3.1450     0.5163 H       
  36 H36           -2.5655    -3.4990    -0.1482 H       
  37 H37           -3.0829    -1.4839     2.0883 H       
  38 H38           -2.5862    -3.1731     2.3681 H       
  39 H39           -0.5183    -2.8477     1.1580 H       
  40 H40           -0.6649    -1.5113     2.3188 H       
@<TRIPOS>BOND
   1    1    2 ar
   2    1    6 ar
   3    1   24 1
   4    2    3 ar
   5    2    7 1
   6    3    4 ar
   7    3   25 1
   8    4    5 ar
   9    4    9 1
  10    5    6 ar
  11    5   26 1
  12    6   27 1
  13    7    8 am
  14    7   22 1
  15    8   19 1
  16    8   23 2
  17    9   10 am
  18    9   28 1
  19   10   11 1
  20   10   18 2
  21   11   12 ar
  22   11   16 ar
  23   12   13 ar
  24   12   29 1
  25   13   14 ar
  26   13   30 1
  27   14   15 ar
  28   14   31 1
  29   15   16 ar
  30   15   32 1
  31   16   17 1
  32   19   20 1
  33   19   33 1
  34   19   34 1
  35   20   21 1
  36   20   35 1
  37   20   36 1
  38   21   22 1
  39   21   37 1
  40   21   38 1
  41   22   39 1
  42   22   40 1

#	End of record

