#	Name: ASD05503047
#	Creating user name:	WinNT
#	Creation time:	15. 06. 2019 21:01

#	Modifying user name:	WinNT
#	Modification time:	15. 06. 2019 21:01

#	Program:	/corina/corina34_cracker 3.40 0067  02.08.2006

@<TRIPOS>MOLECULE
ASD05503047
  39   41    0    0    0
SMALL
NO_CHARGES


@<TRIPOS>ATOM
   1 C1            -0.1501     1.4094     0.2170 C.ar    
   2 C2            -0.1096     0.0330    -0.0101 C.ar    
   3 C3             1.1279    -0.5642    -0.2309 C.ar    
   4 C4             2.2685     0.2259    -0.2172 C.ar    
   5 N5             2.1850     1.5298     0.0024 N.ar    
   6 C6             1.0271     2.1268     0.2153 C.ar    
   7 N7            -1.2802    -0.7254    -0.0152 N.am    
   8 C8            -2.4229    -0.1977    -0.4973 C.2     
   9 O9            -2.4532     0.9643    -0.8527 O.2     
  10 C10           -3.6391    -1.0321    -0.5938 C.ar    
  11 N11            3.5145    -0.3580    -0.4363 N.am    
  12 C12            4.6139     0.4157    -0.5321 C.2     
  13 C13            5.9165    -0.1909    -0.8760 C.ar    
  14 O14            4.5337     1.6126    -0.3356 O.2     
  15 C15            6.0122    -1.5651    -1.1023 C.ar    
  16 C16            7.2313    -2.1249    -1.4235 C.ar    
  17 C17            8.3585    -1.3282    -1.5212 C.ar    
  18 C18            8.2719     0.0343    -1.2984 C.ar    
  19 C19            7.0571     0.6091    -0.9818 C.ar    
  20 Br20           6.9402     2.4718    -0.6782 Br      
  21 C21           -4.8243    -0.4887    -1.0927 C.ar    
  22 C22           -5.9558    -1.2729    -1.1800 C.ar    
  23 C23           -5.9179    -2.5952    -0.7745 C.ar    
  24 C24           -4.7466    -3.1399    -0.2787 C.ar    
  25 C25           -3.6062    -2.3685    -0.1918 C.ar    
  26 H26           -1.0932     1.9073     0.3877 H       
  27 H27            1.1994    -1.6268    -0.4099 H       
  28 H28            1.0016     3.1922     0.3901 H       
  29 H29           -1.2720    -1.6325     0.3283 H       
  30 H30            3.5907    -1.3214    -0.5198 H       
  31 H31            5.1337    -2.1886    -1.0258 H       
  32 H32            7.3064    -3.1880    -1.5987 H       
  33 H33            9.3104    -1.7723    -1.7723 H       
  34 H34            9.1556     0.6503    -1.3763 H       
  35 H35           -4.8553     0.5434    -1.4092 H       
  36 H36           -6.8735    -0.8537    -1.5655 H       
  37 H37           -6.8066    -3.2049    -0.8450 H       
  38 H38           -4.7239    -4.1726     0.0368 H       
  39 H39           -2.6926    -2.7948     0.1954 H       
@<TRIPOS>BOND
   1    1    2 ar
   2    1    6 ar
   3    1   26 1
   4    2    3 ar
   5    2    7 1
   6    3    4 ar
   7    3   27 1
   8    4    5 ar
   9    4   11 1
  10    5    6 ar
  11    6   28 1
  12    7    8 am
  13    7   29 1
  14    8    9 2
  15    8   10 1
  16   10   21 ar
  17   10   25 ar
  18   11   12 am
  19   11   30 1
  20   12   13 1
  21   12   14 2
  22   13   15 ar
  23   13   19 ar
  24   15   16 ar
  25   15   31 1
  26   16   17 ar
  27   16   32 1
  28   17   18 ar
  29   17   33 1
  30   18   19 ar
  31   18   34 1
  32   19   20 1
  33   21   22 ar
  34   21   35 1
  35   22   23 ar
  36   22   36 1
  37   23   24 ar
  38   23   37 1
  39   24   25 ar
  40   24   38 1
  41   25   39 1

#	End of record

