#	Name: ASD01208415
#	Creating user name:	WinNT
#	Creation time:	15. 06. 2019 19:09

#	Modifying user name:	WinNT
#	Modification time:	15. 06. 2019 19:09

#	Program:	/corina/corina34_cracker 3.40 0067  02.08.2006

@<TRIPOS>MOLECULE
ASD01208415
  50   52    0    0    0
SMALL
NO_CHARGES


@<TRIPOS>ATOM
   1 C1             0.6230     1.5350     0.3249 C.ar    
   2 C2             0.4487     0.1616     0.4173 C.ar    
   3 C3             1.3997    -0.6986    -0.1126 C.ar    
   4 C4             2.5269    -0.1879    -0.7361 C.ar    
   5 C5             2.7044     1.1905    -0.8309 C.ar    
   6 C6             1.7474     2.0516    -0.2976 C.ar    
   7 O7            -0.3133     2.3744     0.8406 O.3     
   8 O8             4.3236     3.1531    -1.7226 O.3     
   9 B9             3.9806     1.7726    -1.5362 Du      
  10 O10            5.0594     1.0405    -2.1350 O.3     
  11 C11            6.2462     1.7776    -1.7730 C.3     
  12 C12            5.7473     3.2099    -1.4935 C.3     
  13 C13            6.4034     4.2006    -2.4574 C.3     
  14 C14            6.0387     3.6024    -0.0437 C.3     
  15 C15            6.8824     1.1799    -0.5165 C.3     
  16 C16            7.2471     1.7780    -2.9302 C.3     
  17 O17            1.2257    -2.0431    -0.0197 O.3     
  18 C18            1.7496    -2.6811     1.0597 C.ar    
  19 C19            2.3429    -1.9499     2.0788 C.ar    
  20 C20            2.8748    -2.6009     3.1749 C.ar    
  21 C21            2.8163    -3.9799     3.2571 C.ar    
  22 C22            2.2261    -4.7110     2.2426 C.ar    
  23 C23            1.6872    -4.0645     1.1472 C.ar    
  24 S24            3.4958    -4.8072     4.6566 S.o2    
  25 O25            3.8296    -6.1004     4.1713 O.2     
  26 O26            4.4998    -3.9220     5.1336 O.2     
  27 C27            2.1209    -4.9052     5.8359 C.3     
  28 H28           -0.4289    -0.2387     0.9032 H       
  29 H29            3.2672    -0.8579    -1.1478 H       
  30 H30            1.8822     3.1207    -0.3696 H       
  31 H31           -0.1592     2.6155     1.7643 H       
  32 H32            5.9977     5.1976    -2.2856 H       
  33 H33            7.4802     4.2125    -2.2890 H       
  34 H34            6.1996     3.8974    -3.4844 H       
  35 H35            5.5782     2.8783     0.6284 H       
  36 H36            7.1163     3.6156     0.1196 H       
  37 H37            5.6291     4.5931     0.1539 H       
  38 H38            7.1769     0.1491    -0.7135 H       
  39 H39            7.7617     1.7628    -0.2420 H       
  40 H40            6.1620     1.2020     0.3012 H       
  41 H41            6.7834     2.2212    -3.8115 H       
  42 H42            8.1255     2.3596    -2.6506 H       
  43 H43            7.5455     0.7536    -3.1530 H       
  44 H44            2.3891    -0.8728     2.0150 H       
  45 H45            3.3370    -2.0323     3.9683 H       
  46 H46            2.1823    -5.7880     2.3088 H       
  47 H47            1.2216    -4.6356     0.3576 H       
  48 H48            1.2995    -5.4666     5.3906 H       
  49 H49            2.4555    -5.4088     6.7429 H       
  50 H50            1.7817    -3.8993     6.0829 H       
@<TRIPOS>BOND
   1    1    2 ar
   2    1    6 ar
   3    1    7 1
   4    2    3 ar
   5    2   28 1
   6    3    4 ar
   7    3   17 1
   8    4    5 ar
   9    4   29 1
  10    5    6 ar
  11    5    9 1
  12    6   30 1
  13    7   31 1
  14    8    9 1
  15    8   12 1
  16    9   10 1
  17   10   11 1
  18   11   12 1
  19   11   15 1
  20   11   16 1
  21   12   13 1
  22   12   14 1
  23   13   32 1
  24   13   33 1
  25   13   34 1
  26   14   35 1
  27   14   36 1
  28   14   37 1
  29   15   38 1
  30   15   39 1
  31   15   40 1
  32   16   41 1
  33   16   42 1
  34   16   43 1
  35   17   18 1
  36   18   19 ar
  37   18   23 ar
  38   19   20 ar
  39   19   44 1
  40   20   21 ar
  41   20   45 1
  42   21   22 ar
  43   21   24 1
  44   22   23 ar
  45   22   46 1
  46   23   47 1
  47   24   25 2
  48   24   26 2
  49   24   27 1
  50   27   48 1
  51   27   49 1
  52   27   50 1

#	End of record

