#	Name: ASD00841477
#	Creating user name:	WinNT
#	Creation time:	15. 06. 2019 18:42

#	Modifying user name:	WinNT
#	Modification time:	15. 06. 2019 18:42

#	Program:	/corina/corina34_cracker 3.40 0067  02.08.2006

@<TRIPOS>MOLECULE
ASD00841477
  87   92    0    0    0
SMALL
NO_CHARGES


@<TRIPOS>ATOM
   1 C1            -0.0139     1.3805     0.0279 C.ar    
   2 C2             0.0035    -0.0064     0.0123 C.ar    
   3 C3             1.2150    -0.6825    -0.0057 C.ar    
   4 C4             2.4003     0.0266    -0.0081 C.ar    
   5 C5             2.3802     1.4092     0.0080 C.ar    
   6 C6             1.1745     2.0852     0.0254 C.ar    
   7 C7             1.2376    -2.1893    -0.0222 C.3     
   8 C8             0.4951    -2.7176    -1.2310 C.2     
   9 N9             2.6177    -2.6807    -0.0123 N.am    
  10 C10            3.4635    -2.3343    -1.0027 C.2     
  11 N11            4.7591    -2.7005    -0.9414 N.am    
  12 O12            3.0578    -1.6913    -1.9516 O.2     
  13 C13            5.2904    -3.3764     0.2501 C.3     
  14 C14            6.5168    -2.6055     0.7485 C.3     
  15 C15            7.5241    -2.4629    -0.3948 C.3     
  16 C16            6.8891    -1.6717    -1.5407 C.3     
  17 C17            5.6656    -2.4371    -2.0673 C.3     
  18 N18            8.7158    -1.7530     0.0886 N.3     
  19 C19            9.7550    -1.7011    -0.9492 C.3     
  20 C20           10.9450    -0.8871    -0.4355 C.3     
  21 N21           11.4628    -1.5037     0.7939 N.3     
  22 C22           10.4236    -1.5555     1.8317 C.3     
  23 C23            9.2336    -2.3695     1.3180 C.3     
  24 H24           11.8347    -2.4231     0.6084 H       
  25 O25            0.7748    -2.5146    -2.3936 O.2     
  26 N26           -0.5321    -3.4534    -0.7741 N.am    
  27 C27            0.4667    -2.7433     1.1540 C.ar    
  28 C28           -0.5774    -3.4889     0.6206 C.ar    
  29 C29            0.6297    -2.6303     2.5163 C.ar    
  30 C30           -0.2541    -3.2648     3.3730 C.ar    
  31 C31           -1.2997    -4.0116     2.8537 C.ar    
  32 C32           -1.4637    -4.1253     1.4864 C.ar    
  33 Cl33          -0.0525    -3.1258     5.0916 Cl      
  34 F34           -2.1627    -4.6313     3.6883 F       
  35 C35           -0.9832    -5.8425    -2.0638 C.ar    
  36 C36            0.1959    -5.9980    -2.7778 C.ar    
  37 C37           -1.6552    -6.9535    -1.5917 C.ar    
  38 C38           -1.1532    -8.2194    -1.8299 C.ar    
  39 C39            0.0221    -8.3771    -2.5414 C.ar    
  40 C40            0.6974    -7.2696    -3.0159 C.ar    
  41 H41            0.4122    -9.3671    -2.7262 H       
  42 O42            0.8585    -4.9067    -3.2436 O.3     
  43 C43            2.0660    -5.1423    -3.9706 C.3     
  44 C44            2.6652    -3.8052    -4.4111 C.3     
  45 O45           -1.1641    -0.7019     0.0151 O.3     
  46 C46           -3.5735    -0.8885     0.0347 C.3     
  47 C47           -2.3729     0.0600     0.0344 C.3     
  48 S48           -1.6195    -4.2290    -1.7530 S.o2    
  49 O49           -2.7997    -4.4049    -0.9815 O.2     
  50 O50           -1.5995    -3.5432    -2.9974 O.2     
  51 H51           -0.9557     1.9091     0.0374 H       
  52 H52            3.3436    -0.4992    -0.0220 H       
  53 H53            3.3081     1.9619     0.0068 H       
  54 H54            1.1614     3.1651     0.0379 H       
  55 H55            2.9227    -3.2554     0.7071 H       
  56 H56            4.5288    -3.3950     1.0296 H       
  57 H57            5.5789    -4.3958    -0.0062 H       
  58 H58            6.2109    -1.6164     1.0894 H       
  59 H59            6.9774    -3.1488     1.5736 H       
  60 H60            7.8107    -3.4521    -0.7517 H       
  61 H61            6.5797    -0.6914    -1.1782 H       
  62 H62            7.6147    -1.5504    -2.3449 H       
  63 H63            5.9874    -3.3786    -2.5124 H       
  64 H64            5.1514    -1.8337    -2.8154 H       
  65 H65           10.0823    -2.7132    -1.1870 H       
  66 H66            9.3512    -1.2292    -1.8449 H       
  67 H67           11.7290    -0.8716    -1.1926 H       
  68 H68           10.6236     0.1326    -0.2234 H       
  69 H69           10.8274    -2.0274     2.7274 H       
  70 H70           10.0963    -0.5434     2.0695 H       
  71 H71            8.4496    -2.3850     2.0751 H       
  72 H72            9.5549    -3.3892     1.1059 H       
  73 H73            1.4462    -2.0476     2.9165 H       
  74 H74           -2.2808    -4.7086     1.0883 H       
  75 H75           -2.5732    -6.8330    -1.0358 H       
  76 H76           -1.6796    -9.0866    -1.4594 H       
  77 H77            1.6148    -7.3933    -3.5722 H       
  78 H78            2.7775    -5.6669    -3.3329 H       
  79 H79            1.8486    -5.7500    -4.8490 H       
  80 H80            1.9537    -3.2807    -5.0487 H       
  81 H81            2.8827    -3.1976    -3.5327 H       
  82 H82            3.5863    -3.9850    -4.9656 H       
  83 H83           -3.5482    -1.5069    -0.8625 H       
  84 H84           -3.5321    -1.5267     0.9173 H       
  85 H85           -4.4956    -0.3074     0.0495 H       
  86 H86           -2.3983     0.6784     0.9316 H       
  87 H87           -2.4143     0.6982    -0.8482 H       
@<TRIPOS>BOND
   1    1    2 ar
   2    1    6 ar
   3    1   51 1
   4    2    3 ar
   5    2   45 1
   6    3    4 ar
   7    3    7 1
   8    4    5 ar
   9    4   52 1
  10    5    6 ar
  11    5   53 1
  12    6   54 1
  13    7    8 1
  14    7    9 1
  15    7   27 1
  16    8   25 2
  17    8   26 am
  18    9   10 am
  19    9   55 1
  20   10   11 am
  21   10   12 2
  22   11   13 1
  23   11   17 1
  24   13   14 1
  25   13   56 1
  26   13   57 1
  27   14   15 1
  28   14   58 1
  29   14   59 1
  30   15   16 1
  31   15   18 1
  32   15   60 1
  33   16   17 1
  34   16   61 1
  35   16   62 1
  36   17   63 1
  37   17   64 1
  38   18   19 1
  39   18   23 1
  40   19   20 1
  41   19   65 1
  42   19   66 1
  43   20   21 1
  44   20   67 1
  45   20   68 1
  46   21   22 1
  47   21   24 1
  48   22   23 1
  49   22   69 1
  50   22   70 1
  51   23   71 1
  52   23   72 1
  53   26   48 am
  54   26   28 1
  55   27   28 ar
  56   27   29 ar
  57   28   32 ar
  58   29   30 ar
  59   29   73 1
  60   30   31 ar
  61   30   33 1
  62   31   32 ar
  63   31   34 1
  64   32   74 1
  65   35   36 ar
  66   35   37 ar
  67   35   48 1
  68   36   42 1
  69   36   40 ar
  70   37   38 ar
  71   37   75 1
  72   38   39 ar
  73   38   76 1
  74   39   40 ar
  75   39   41 1
  76   40   77 1
  77   42   43 1
  78   43   44 1
  79   43   78 1
  80   43   79 1
  81   44   80 1
  82   44   81 1
  83   44   82 1
  84   45   47 1
  85   46   47 1
  86   46   83 1
  87   46   84 1
  88   46   85 1
  89   47   86 1
  90   47   87 1
  91   48   49 2
  92   48   50 2

#	End of record

