#	Name: ASD01810218
#	Creating user name:	WinNT
#	Creation time:	15. 06. 2019 19:24

#	Modifying user name:	WinNT
#	Modification time:	15. 06. 2019 19:24

#	Program:	/corina/corina34_cracker 3.40 0067  02.08.2006

@<TRIPOS>MOLECULE
ASD01810218
  70   74    0    0    0
SMALL
NO_CHARGES


@<TRIPOS>ATOM
   1 C1            -0.0152     1.3484     0.0035 C.2     
   2 C2             0.0029    -0.0035    -0.0066 C.2     
   3 C3             1.1863     2.0700     0.0064 C.2     
   4 C4             2.3733     1.3979    -0.0012 C.2     
   5 C5             2.3713    -0.0071    -0.0117 C.2     
   6 N6             1.1831    -0.6862    -0.0138 N.am    
   7 C7             3.5893    -0.7005    -0.0194 C.2     
   8 C8             3.5977    -2.0656    -0.0297 C.2     
   9 C9             2.3746    -2.7598    -0.0323 C.2     
  10 C10            1.1666    -2.0344    -0.0234 C.2     
  11 O11            0.1015    -2.6285    -0.0253 O.2     
  12 C12            2.3565    -4.2261    -0.0433 C.2     
  13 O13            1.2999    -4.8224     0.0527 O.2     
  14 N14            3.5100    -4.9134    -0.1597 N.am    
  15 C15            4.8898     0.0609    -0.0169 C.3     
  16 N16            5.3765     0.1942     1.3627 N.3     
  17 C17            6.7482     0.7177     1.3885 C.3     
  18 C18            5.2822    -1.0837     2.0798 C.3     
  19 C19            5.6585    -0.8750     3.5485 C.3     
  20 C20            7.0854    -0.3258     3.6316 C.3     
  21 C21            7.1683     0.9802     2.8365 C.3     
  22 C22            7.4456    -0.0577     5.0942 C.3     
  23 C23            7.3561    -1.3422     5.8772 C.ar    
  24 C24            8.4370    -2.2026     5.9036 C.ar    
  25 N25            6.2490    -1.6295     6.5338 N.ar    
  26 C26            6.1256    -2.7410     7.2322 C.ar    
  27 C27            7.1630    -3.6519     7.3004 C.ar    
  28 C28            8.3445    -3.3818     6.6274 C.ar    
  29 C29            8.8174     0.4703     5.1728 C.1     
  30 N30            9.8761     0.8777     5.2335 N.1     
  31 C31            3.5054    -6.3748    -0.0576 C.3     
  32 C32            3.1774    -6.9805    -1.4237 C.3     
  33 C33            4.2327    -6.5437    -2.4419 C.3     
  34 C34            5.6111    -7.0275    -1.9872 C.3     
  35 C35            5.9391    -6.4219    -0.6210 C.3     
  36 C36            4.8839    -6.8586     0.3971 C.3     
  37 O37            5.1902    -6.2929     1.6731 O.3     
  38 H38           -0.9587     1.8740     0.0050 H       
  39 H39           -0.9290    -0.5494    -0.0087 H       
  40 H40            1.1724     3.1499     0.0141 H       
  41 H41            3.3067     1.9412     0.0005 H       
  42 H42            4.5327    -2.6062    -0.0360 H       
  43 H43            4.3433    -4.4404    -0.3111 H       
  44 H44            5.6273    -0.4778    -0.6119 H       
  45 H45            4.7318     1.0513    -0.4438 H       
  46 H46            7.4237    -0.0114     0.9409 H       
  47 H47            6.7925     1.6485     0.8231 H       
  48 H48            4.2617    -1.4613     2.0165 H       
  49 H49            5.9645    -1.8044     1.6290 H       
  50 H50            4.9681    -0.1649     4.0037 H       
  51 H51            5.6036    -1.8267     4.0770 H       
  52 H52            7.7806    -1.0527     3.2116 H       
  53 H53            8.1920     1.3540     2.8564 H       
  54 H54            6.5017     1.7195     3.2805 H       
  55 H55            6.7512     0.6715     5.5117 H       
  56 H56            9.3423    -1.9600     5.3669 H       
  57 H57            5.2035    -2.9419     7.7573 H       
  58 H58            7.0560    -4.5607     7.8742 H       
  59 H59            9.1718    -4.0753     6.6626 H       
  60 H60            2.7537    -6.6860     0.6678 H       
  61 H61            3.1740    -8.0679    -1.3478 H       
  62 H62            2.1954    -6.6358    -1.7477 H       
  63 H63            3.9990    -6.9752    -3.4152 H       
  64 H64            4.2361    -5.4564    -2.5179 H       
  65 H65            5.6077    -8.1149    -1.9112 H       
  66 H66            6.3629    -6.7164    -2.7125 H       
  67 H67            6.9211    -6.7665    -0.2971 H       
  68 H68            5.9425    -5.3345    -0.6970 H       
  69 H69            4.8805    -7.9460     0.4731 H       
  70 H70            6.0517    -6.5572     2.0239 H       
@<TRIPOS>BOND
   1    1    2 2
   2    1    3 1
   3    1   38 1
   4    2    6 1
   5    2   39 1
   6    3    4 2
   7    3   40 1
   8    4    5 1
   9    4   41 1
  10    5    6 1
  11    5    7 2
  12    6   10 am
  13    7    8 1
  14    7   15 1
  15    8    9 2
  16    8   42 1
  17    9   10 1
  18    9   12 1
  19   10   11 2
  20   12   13 2
  21   12   14 am
  22   14   31 1
  23   14   43 1
  24   15   16 1
  25   15   44 1
  26   15   45 1
  27   16   17 1
  28   16   18 1
  29   17   21 1
  30   17   46 1
  31   17   47 1
  32   18   19 1
  33   18   48 1
  34   18   49 1
  35   19   20 1
  36   19   50 1
  37   19   51 1
  38   20   21 1
  39   20   22 1
  40   20   52 1
  41   21   53 1
  42   21   54 1
  43   22   23 1
  44   22   29 1
  45   22   55 1
  46   23   24 ar
  47   23   25 ar
  48   24   28 ar
  49   24   56 1
  50   25   26 ar
  51   26   27 ar
  52   26   57 1
  53   27   28 ar
  54   27   58 1
  55   28   59 1
  56   29   30 3
  57   31   32 1
  58   31   36 1
  59   31   60 1
  60   32   33 1
  61   32   61 1
  62   32   62 1
  63   33   34 1
  64   33   63 1
  65   33   64 1
  66   34   35 1
  67   34   65 1
  68   34   66 1
  69   35   36 1
  70   35   67 1
  71   35   68 1
  72   36   37 1
  73   36   69 1
  74   37   70 1

#	End of record

