#	Name: ASD01882440
#	Creating user name:	WinNT
#	Creation time:	15. 06. 2019 19:44

#	Modifying user name:	WinNT
#	Modification time:	15. 06. 2019 19:44

#	Program:	/corina/corina34_cracker 3.40 0067  02.08.2006

@<TRIPOS>MOLECULE
ASD01882440
  58   62    0    0    0
SMALL
NO_CHARGES


@<TRIPOS>ATOM
   1 C1             0.0713     1.3101     0.5637 C.2     
   2 C2             0.0111    -0.0130     0.0854 C.2     
   3 C3             1.1213    -0.5700    -0.4690 C.2     
   4 C4             2.3076     0.1787    -0.5565 C.2     
   5 C5             2.3505     1.4456    -0.0934 C.2     
   6 N6             1.2447     2.0168     0.4643 N.pl3   
   7 N7            -0.2596     3.2461     1.3911 N.2     
   8 N8            -0.8124     2.1128     1.1340 N.2     
   9 C9             0.9896     3.2399     1.0031 C.2     
  10 C10           -1.2683    -0.8028     0.1869 C.3     
  11 F11           -1.1808    -1.6964     1.2598 F       
  12 F12           -2.3408     0.0713     0.3944 F       
  13 F13           -1.4712    -1.5165    -0.9991 F       
  14 C14            1.0797    -1.9846    -0.9869 C.3     
  15 N15            0.7766    -1.9711    -2.4242 N.3     
  16 C16            0.9597    -3.3038    -3.0131 C.3     
  17 C17            0.4974    -3.2861    -4.4719 C.3     
  18 C18            1.3128    -2.2482    -5.2481 C.3     
  19 C19            1.1432    -0.8782    -4.5856 C.3     
  20 C20            1.5868    -0.9656    -3.1235 C.3     
  21 C21            2.7907    -2.6438    -5.2334 C.3     
  22 C22            0.8215    -2.1836    -6.6713 C.ar    
  23 C23            1.4114    -1.3109    -7.5666 C.ar    
  24 C24            0.9620    -1.2511    -8.8722 C.ar    
  25 C25           -0.0794    -2.0657    -9.2833 C.ar    
  26 C26           -0.6694    -2.9394    -8.3856 C.ar    
  27 C27           -0.2148    -3.0012    -7.0820 C.ar    
  28 F28           -0.5198    -2.0078   -10.5592 F       
  29 C29            1.9670     4.3801     1.1277 C.3     
  30 C30            1.8948     5.2531    -0.1267 C.3     
  31 C31            2.7304     6.5347    -0.1445 C.3     
  32 C32            3.1473     5.3377    -1.0015 C.3     
  33 H33            3.1898    -0.2624    -0.9964 H       
  34 H34            3.2674     2.0117    -0.1654 H       
  35 H35            2.0471    -2.4597    -0.8240 H       
  36 H36            0.3072    -2.5426    -0.4578 H       
  37 H37            2.0136    -3.5785    -2.9694 H       
  38 H38            0.3713    -4.0317    -2.4545 H       
  39 H39            0.6480    -4.2713    -4.9133 H       
  40 H40           -0.5599    -3.0249    -4.5155 H       
  41 H41            1.7552    -0.1430    -5.1082 H       
  42 H42            0.0960    -0.5791    -4.6309 H       
  43 H43            1.4539     0.0047    -2.6450 H       
  44 H44            2.6377    -1.2513    -3.0793 H       
  45 H45            2.9097    -3.6217    -5.7001 H       
  46 H46            3.3702    -1.9045    -5.7861 H       
  47 H47            3.1449    -2.6873    -4.2035 H       
  48 H48            2.2234    -0.6753    -7.2456 H       
  49 H49            1.4227    -0.5690    -9.5714 H       
  50 H50           -1.4818    -3.5752    -8.7052 H       
  51 H51           -0.6722    -3.6855    -6.3827 H       
  52 H52            1.7160     4.9798     2.0027 H       
  53 H53            2.9763     3.9832     1.2367 H       
  54 H54            0.9275     5.2759    -0.6286 H       
  55 H55            2.3129     7.4005    -0.6584 H       
  56 H56            3.3315     6.7559     0.7375 H       
  57 H57            4.0226     4.7714    -0.6833 H       
  58 H58            3.0040     5.4161    -2.0792 H       
@<TRIPOS>BOND
   1    1    2 1
   2    1    6 1
   3    1    8 2
   4    2    3 2
   5    2   10 1
   6    3    4 1
   7    3   14 1
   8    4    5 2
   9    4   33 1
  10    5    6 1
  11    5   34 1
  12    6    9 1
  13    7    8 1
  14    7    9 2
  15    9   29 1
  16   10   11 1
  17   10   12 1
  18   10   13 1
  19   14   15 1
  20   14   35 1
  21   14   36 1
  22   15   16 1
  23   15   20 1
  24   16   17 1
  25   16   37 1
  26   16   38 1
  27   17   18 1
  28   17   39 1
  29   17   40 1
  30   18   19 1
  31   18   21 1
  32   18   22 1
  33   19   20 1
  34   19   41 1
  35   19   42 1
  36   20   43 1
  37   20   44 1
  38   21   45 1
  39   21   46 1
  40   21   47 1
  41   22   23 ar
  42   22   27 ar
  43   23   24 ar
  44   23   48 1
  45   24   25 ar
  46   24   49 1
  47   25   26 ar
  48   25   28 1
  49   26   27 ar
  50   26   50 1
  51   27   51 1
  52   29   30 1
  53   29   52 1
  54   29   53 1
  55   30   31 1
  56   30   32 1
  57   30   54 1
  58   31   32 1
  59   31   55 1
  60   31   56 1
  61   32   57 1
  62   32   58 1

#	End of record

