#	Name: ASD01912096
#	Creating user name:	WinNT
#	Creation time:	15. 06. 2019 19:59

#	Modifying user name:	WinNT
#	Modification time:	15. 06. 2019 19:59

#	Program:	/corina/corina34_cracker 3.40 0067  02.08.2006

@<TRIPOS>MOLECULE
ASD01912096
  61   65    0    0    0
SMALL
NO_CHARGES


@<TRIPOS>ATOM
   1 N1             0.0088     1.3339    -0.2146 N.2     
   2 C2             0.0005     0.0028    -0.0846 C.2     
   3 N3             1.2257    -0.4105     0.1583 N.2     
   4 N4             2.0446     0.7301     0.1808 N.pl3   
   5 C5             1.2342     1.7876    -0.0573 C.2     
   6 C6             1.6526     3.2053    -0.1288 C.ar    
   7 C7             0.7123     4.2222     0.0369 C.ar    
   8 C8             1.1087     5.5421    -0.0303 C.ar    
   9 C9             2.4357     5.8579    -0.2615 C.ar    
  10 C10            3.3730     4.8539    -0.4267 C.ar    
  11 C11            2.9900     3.5302    -0.3564 C.ar    
  12 C12           -1.1969    -0.8671    -0.1957 C.ar    
  13 C13           -2.4456    -0.3075    -0.4570 C.ar    
  14 C14           -3.5559    -1.1213    -0.5598 C.ar    
  15 C15           -3.4303    -2.4896    -0.4035 C.ar    
  16 C16           -2.1927    -3.0506    -0.1439 C.ar    
  17 C17           -1.0752    -2.2470    -0.0448 C.ar    
  18 C18            3.4901     0.7679     0.4154 C.3     
  19 C19            4.2163     0.5925    -0.8934 C.2     
  20 N20            5.5638     0.5940    -0.9219 N.am    
  21 O21            3.5882     0.4499    -1.9210 O.2     
  22 C22            6.2922     0.4244    -2.1883 C.3     
  23 C23            7.3200     1.5540    -2.3137 C.3     
  24 N24            8.1630     1.5804    -1.1110 N.3     
  25 C25            7.3705     1.8815     0.0887 C.3     
  26 C26            6.3447     0.7714     0.3117 C.3     
  27 C27            9.2053     2.4796    -1.2554 C.ar    
  28 N28           10.0688     2.6337    -0.2625 N.ar    
  29 C29           -4.9074    -0.5174    -0.8424 C.3     
  30 C30           11.0760     3.4846    -0.3682 C.ar    
  31 C31           11.2212     4.2188    -1.5349 C.ar    
  32 C32           10.3000     4.0330    -2.5537 C.ar    
  33 N33            9.3188     3.1619    -2.3855 N.ar    
  34 C34           -5.1311    -0.4529    -2.3546 C.3     
  35 H35           -0.3240     3.9770     0.2171 H       
  36 H36            0.3816     6.3304     0.0975 H       
  37 H37            2.7410     6.8925    -0.3136 H       
  38 H38            4.4074     5.1067    -0.6069 H       
  39 H39            3.7227     2.7472    -0.4851 H       
  40 H40           -2.5449     0.7610    -0.5785 H       
  41 H41           -4.3017    -3.1226    -0.4840 H       
  42 H42           -2.1003    -4.1197    -0.0224 H       
  43 H43           -0.1094    -2.6859     0.1579 H       
  44 H44            3.7618     1.7272     0.8559 H       
  45 H45            3.7688    -0.0365     1.0962 H       
  46 H46            6.8038    -0.5381    -2.1904 H       
  47 H47            5.5923     0.4719    -3.0225 H       
  48 H48            7.9435     1.3827    -3.1912 H       
  49 H49            6.8019     2.5075    -2.4158 H       
  50 H50            8.0307     1.9476     0.9536 H       
  51 H51            6.8517     2.8304    -0.0468 H       
  52 H52            5.6805     1.0459     1.1312 H       
  53 H53            6.8589    -0.1599     0.5496 H       
  54 H54           -5.6829    -1.1328    -0.3863 H       
  55 H55           -4.9501     0.4888    -0.4256 H       
  56 H56           11.7765     3.6061     0.4447 H       
  57 H57           12.0343     4.9206    -1.6475 H       
  58 H58           10.3846     4.5897    -3.4753 H       
  59 H59           -4.3556     0.1625    -2.8107 H       
  60 H60           -5.0884    -1.4592    -2.7714 H       
  61 H61           -6.1086    -0.0162    -2.5590 H       
@<TRIPOS>BOND
   1    1    2 1
   2    1    5 2
   3    2    3 2
   4    2   12 1
   5    3    4 1
   6    4    5 1
   7    4   18 1
   8    5    6 1
   9    6    7 ar
  10    6   11 ar
  11    7    8 ar
  12    7   35 1
  13    8    9 ar
  14    8   36 1
  15    9   10 ar
  16    9   37 1
  17   10   11 ar
  18   10   38 1
  19   11   39 1
  20   12   13 ar
  21   12   17 ar
  22   13   14 ar
  23   13   40 1
  24   14   15 ar
  25   14   29 1
  26   15   16 ar
  27   15   41 1
  28   16   17 ar
  29   16   42 1
  30   17   43 1
  31   18   19 1
  32   18   44 1
  33   18   45 1
  34   19   20 am
  35   19   21 2
  36   20   22 1
  37   20   26 1
  38   22   23 1
  39   22   46 1
  40   22   47 1
  41   23   24 1
  42   23   48 1
  43   23   49 1
  44   24   25 1
  45   24   27 1
  46   25   26 1
  47   25   50 1
  48   25   51 1
  49   26   52 1
  50   26   53 1
  51   27   28 ar
  52   27   33 ar
  53   28   30 ar
  54   29   34 1
  55   29   54 1
  56   29   55 1
  57   30   31 ar
  58   30   56 1
  59   31   32 ar
  60   31   57 1
  61   32   33 ar
  62   32   58 1
  63   34   59 1
  64   34   60 1
  65   34   61 1

#	End of record

