#	Name: ASD00170372
#	Creating user name:	WinNT
#	Creation time:	15. 06. 2019 18:32

#	Modifying user name:	WinNT
#	Modification time:	15. 06. 2019 18:32

#	Program:	/corina/corina34_cracker 3.40 0067  02.08.2006

@<TRIPOS>MOLECULE
ASD00170372
  48   51    0    0    0
SMALL
NO_CHARGES


@<TRIPOS>ATOM
   1 C1            -0.0089     1.3375    -0.1008 C.2     
   2 C2             0.0159    -0.0003    -0.1274 C.2     
   3 C3            -1.3036    -0.5836     0.0234 C.2     
   4 C4            -2.2962     0.3548     0.1605 C.2     
   5 S5            -1.6464     1.9282     0.1155 S.3     
   6 C6            -1.5514    -2.0250     0.0288 C.2     
   7 C7            -1.5552    -2.7700     1.3068 C.ar    
   8 O8            -1.7544    -2.6118    -1.0186 O.2     
   9 C9            -1.2300    -2.1198     2.4980 C.ar    
  10 C10           -1.2360    -2.8204     3.6867 C.ar    
  11 C11           -1.5630    -4.1646     3.6992 C.ar    
  12 C12           -1.8860    -4.8154     2.5214 C.ar    
  13 C13           -1.8898    -4.1251     1.3272 C.ar    
  14 N14           -3.6357     0.0630     0.3185 N.pl3   
  15 C15            1.2282     2.2038    -0.2353 C.3     
  16 N16            2.4141     1.3682     0.0050 N.3     
  17 C17            2.3820     0.1572    -0.8275 C.3     
  18 C18            1.3025    -0.7929    -0.2994 C.3     
  19 C19            3.6495     2.1301    -0.2213 C.3     
  20 C20            3.7638     3.2205     0.8126 C.ar    
  21 C21            4.4095     2.9731     2.0095 C.ar    
  22 C22            4.5143     3.9733     2.9580 C.ar    
  23 C23            3.9737     5.2210     2.7093 C.ar    
  24 C24            3.3287     5.4687     1.5119 C.ar    
  25 C25            3.2277     4.4698     0.5617 C.ar    
  26 C26           -2.2399    -6.2800     2.5444 C.3     
  27 F27           -2.1726    -6.7555     3.8584 F       
  28 F28           -3.5376    -6.4540     2.0515 F       
  29 F29           -1.3382    -6.9903     1.7446 F       
  30 H30           -0.9739    -1.0707     2.4895 H       
  31 H31           -0.9845    -2.3184     4.6093 H       
  32 H32           -1.5658    -4.7085     4.6322 H       
  33 H33           -2.1421    -4.6341     0.4087 H       
  34 H34           -3.9424    -0.8553     0.2591 H       
  35 H35           -4.2706     0.7762     0.4891 H       
  36 H36            1.2737     2.6233    -1.2403 H       
  37 H37            1.1929     3.0087     0.4988 H       
  38 H38            2.1539     0.4299    -1.8578 H       
  39 H39            3.3527    -0.3372    -0.7880 H       
  40 H40            1.6123    -1.2039     0.6615 H       
  41 H41            1.1439    -1.6020    -1.0123 H       
  42 H42            4.5076     1.4627    -0.1419 H       
  43 H43            3.6254     2.5741    -1.2165 H       
  44 H44            4.8319     1.9983     2.2039 H       
  45 H45            5.0182     3.7798     3.8934 H       
  46 H46            4.0549     6.0023     3.4505 H       
  47 H47            2.9061     6.4434     1.3178 H       
  48 H48            2.7239     4.6632    -0.3737 H       
@<TRIPOS>BOND
   1    1    2 2
   2    1   15 1
   3    1    5 1
   4    2    3 1
   5    2   18 1
   6    3    4 2
   7    3    6 1
   8    4    5 1
   9    4   14 1
  10    6    7 1
  11    6    8 2
  12    7    9 ar
  13    7   13 ar
  14    9   10 ar
  15    9   30 1
  16   10   11 ar
  17   10   31 1
  18   11   12 ar
  19   11   32 1
  20   12   13 ar
  21   12   26 1
  22   13   33 1
  23   14   34 1
  24   14   35 1
  25   15   16 1
  26   15   36 1
  27   15   37 1
  28   16   17 1
  29   16   19 1
  30   17   18 1
  31   17   38 1
  32   17   39 1
  33   18   40 1
  34   18   41 1
  35   19   20 1
  36   19   42 1
  37   19   43 1
  38   20   21 ar
  39   20   25 ar
  40   21   22 ar
  41   21   44 1
  42   22   23 ar
  43   22   45 1
  44   23   24 ar
  45   23   46 1
  46   24   25 ar
  47   24   47 1
  48   25   48 1
  49   26   27 1
  50   26   28 1
  51   26   29 1

#	End of record

