#	Name: ASD08170091
#	Creating user name:	WinNT
#	Creation time:	15. 06. 2019 21:17

#	Modifying user name:	WinNT
#	Modification time:	15. 06. 2019 21:17

#	Program:	/corina/corina34_cracker 3.40 0067  02.08.2006

@<TRIPOS>MOLECULE
ASD08170091
  61   60    0    0    0
SMALL
NO_CHARGES


@<TRIPOS>ATOM
   1 N1            -0.0150     1.2583     0.0090 N.2     
   2 N2             0.0021    -0.0041     0.0020 N.2     
   3 C3             1.1271     1.8769     0.0014 C.2     
   4 S4             2.3826     0.7116    -0.0169 S.3     
   5 C5             1.1681    -0.5677    -0.0121 C.2     
   6 C6             1.4387    -2.0502    -0.0217 C.3     
   7 C7             1.5173    -2.5450    -1.4674 C.3     
   8 C8             2.1718    -6.2170    -3.4310 C.3     
   9 C9             2.2195    -6.5434    -4.9015 C.2     
  10 N10            3.2727    -6.5215    -5.6551 N.2     
  11 S11            0.8525    -7.0314    -5.9038 S.3     
  12 C12            1.9042    -7.1394    -7.2517 C.2     
  13 N13            3.1057    -6.8287    -6.8682 N.2     
  14 N14            1.5340    -7.5046    -8.5415 N.am    
  15 C15            2.4593    -7.5523    -9.5203 C.2     
  16 O16            3.6149    -7.2766    -9.2761 O.2     
  17 C17            2.0581    -7.9480   -10.9179 C.3     
  18 N18            1.3017     3.2566     0.0071 N.am    
  19 C19            0.2284     4.0717     0.0222 C.2     
  20 C20            0.4176     5.5667     0.0285 C.3     
  21 O21           -0.8897     3.6019     0.0309 O.2     
  22 C22            1.9004    -4.7224    -3.2489 C.3     
  23 C23            1.4263    -6.7480   -11.6262 C.3     
  24 C24            0.7443     6.0335     1.4484 C.3     
  25 O25            1.9451     5.3996     1.8938 O.3     
  26 O26            2.3720    -5.6785   -11.6869 O.3     
  27 S27            1.8430    -4.3295    -1.4789 S.3     
  28 N28            3.2460    -8.3864   -11.6627 N.3     
  29 N29           -0.8167     6.2184    -0.4294 N.3     
  30 C30            1.0190    -7.1498   -13.0452 C.3     
  31 C31            0.9364     7.5514     1.4547 C.3     
  32 H32            2.3840    -2.2503     0.4827 H       
  33 H33            0.6331    -2.5700     0.4969 H       
  34 H34            0.5720    -2.3449    -1.9718 H       
  35 H35            2.3230    -2.0252    -1.9860 H       
  36 H36            1.3758    -6.7912    -2.9570 H       
  37 H37            3.1267    -6.4716    -2.9712 H       
  38 H38            0.6097    -7.7250    -8.7368 H       
  39 H39            1.3367    -8.7638   -10.8716 H       
  40 H40            2.1959     3.6323     0.0002 H       
  41 H41            1.2376     5.8320    -0.6389 H       
  42 H42            2.6965    -4.1481    -3.7229 H       
  43 H43            0.9455    -4.4678    -3.7088 H       
  44 H44            0.5449    -6.4227   -11.0736 H       
  45 H45           -0.0757     5.7683     2.1158 H       
  46 H46            2.7180     5.5916     1.3454 H       
  47 H47            3.1833    -5.8975   -12.1654 H       
  48 H48            3.9304    -7.6472   -11.7196 H       
  49 H49            3.6445    -9.2172   -11.2514 H       
  50 H50           -1.0193     5.9765    -1.3878 H       
  51 H51           -1.5923     5.9880     0.1734 H       
  52 H52            0.2976    -7.9656   -12.9989 H       
  53 H53            0.5688    -6.2949   -13.5498 H       
  54 H54            1.9004    -7.4751   -13.5979 H       
  55 H55            0.0206     8.0350     1.1150 H       
  56 H56            1.1692     7.8840     2.4663 H       
  57 H57            1.7564     7.8166     0.7874 H       
  58 Cl58           8.9304    13.0350     7.4663 Cl      
  59 H59            8.9304    14.4050     7.4663 H       
  60 Cl60          13.9304    19.4050    12.4663 Cl      
  61 H61           13.9304    20.7750    12.4663 H       
@<TRIPOS>BOND
   1    1    2 1
   2    1    3 2
   3    2    5 2
   4    3    4 1
   5    3   18 1
   6    4    5 1
   7    5    6 1
   8    6    7 1
   9    6   32 1
  10    6   33 1
  11    7   27 1
  12    7   34 1
  13    7   35 1
  14    8    9 1
  15    8   22 1
  16    8   36 1
  17    8   37 1
  18    9   10 2
  19    9   11 1
  20   10   13 1
  21   11   12 1
  22   12   13 2
  23   12   14 1
  24   14   15 am
  25   14   38 1
  26   15   16 2
  27   15   17 1
  28   17   23 1
  29   17   28 1
  30   17   39 1
  31   18   19 am
  32   18   40 1
  33   19   20 1
  34   19   21 2
  35   20   24 1
  36   20   29 1
  37   20   41 1
  38   22   27 1
  39   22   42 1
  40   22   43 1
  41   23   30 1
  42   23   26 1
  43   23   44 1
  44   24   25 1
  45   24   31 1
  46   24   45 1
  47   25   46 1
  48   26   47 1
  49   28   48 1
  50   28   49 1
  51   29   50 1
  52   29   51 1
  53   30   52 1
  54   30   53 1
  55   30   54 1
  56   31   55 1
  57   31   56 1
  58   31   57 1
  59   58   59 1
  60   60   61 1

#	End of record

