#	Name: ASD05303024
#	Creating user name:	WinNT
#	Creation time:	15. 06. 2019 20:58

#	Modifying user name:	WinNT
#	Modification time:	15. 06. 2019 20:58

#	Program:	/corina/corina34_cracker 3.40 0067  02.08.2006

@<TRIPOS>MOLECULE
ASD05303024
  42   45    0    0    0
SMALL
NO_CHARGES


@<TRIPOS>ATOM
   1 C1            -0.0112     1.3861    -0.0196 C.ar    
   2 C2             0.0043     0.0042    -0.0273 C.ar    
   3 C3             1.2099    -0.6752    -0.0294 C.ar    
   4 C4             2.3987     0.0327    -0.0237 C.ar    
   5 C5             2.3870     1.4259    -0.0189 C.ar    
   6 C6             1.1747     2.0979    -0.0155 C.ar    
   7 O7             3.5505     2.1248    -0.0217 O.3     
   8 N8             3.6328    -0.6432    -0.0173 N.am    
   9 C9             4.7148     1.4955     0.2798 C.ar    
  10 C10            4.7854     0.1041     0.2871 C.ar    
  11 C11            5.9758    -0.5327     0.5906 C.ar    
  12 C12            7.1001     0.2164     0.8905 C.ar    
  13 C13            7.0329     1.5969     0.8870 C.ar    
  14 C14            5.8456     2.2376     0.5828 C.ar    
  15 C15            3.7080    -1.9604    -0.2926 C.2     
  16 O16            2.6912    -2.6081    -0.4467 O.2     
  17 O17            4.9102    -2.5592    -0.3969 O.3     
  18 C18            4.9152    -3.9070    -0.5730 C.ar    
  19 C19            5.1454    -4.7477     0.5059 C.ar    
  20 C20            5.1495    -6.1174     0.3244 C.ar    
  21 C21            4.9244    -6.6501    -0.9312 C.ar    
  22 C22            4.6950    -5.8140    -2.0086 C.ar    
  23 C23            4.6843    -4.4443    -1.8313 C.ar    
  24 C24            4.4339    -3.5337    -3.0057 C.3     
  25 C25            5.7716    -3.0800    -3.5935 C.3     
  26 H26           -0.9540     1.9130    -0.0214 H       
  27 H27           -0.9252    -0.5459    -0.0312 H       
  28 H28            1.2228    -1.7551    -0.0353 H       
  29 H29            1.1561     3.1777    -0.0098 H       
  30 H30            6.0272    -1.6115     0.5939 H       
  31 H31            8.0305    -0.2780     1.1277 H       
  32 H32            7.9120     2.1782     1.1231 H       
  33 H33            5.7994     3.3166     0.5818 H       
  34 H34            5.3217    -4.3320     1.4870 H       
  35 H35            5.3291    -6.7724     1.1641 H       
  36 H36            4.9279    -7.7210    -1.0711 H       
  37 H37            4.5197    -6.2326    -2.9887 H       
  38 H38            3.8658    -4.0695    -3.7662 H       
  39 H39            3.8678    -2.6626    -2.6758 H       
  40 H40            6.3396    -2.5442    -2.8330 H       
  41 H41            6.3376    -3.9511    -3.9234 H       
  42 H42            5.5904    -2.4214    -4.4430 H       
@<TRIPOS>BOND
   1    1    2 ar
   2    1    6 ar
   3    1   26 1
   4    2    3 ar
   5    2   27 1
   6    3    4 ar
   7    3   28 1
   8    4    5 ar
   9    4    8 1
  10    5    6 ar
  11    5    7 1
  12    6   29 1
  13    7    9 1
  14    8   10 1
  15    8   15 am
  16    9   10 ar
  17    9   14 ar
  18   10   11 ar
  19   11   12 ar
  20   11   30 1
  21   12   13 ar
  22   12   31 1
  23   13   14 ar
  24   13   32 1
  25   14   33 1
  26   15   16 2
  27   15   17 1
  28   17   18 1
  29   18   19 ar
  30   18   23 ar
  31   19   20 ar
  32   19   34 1
  33   20   21 ar
  34   20   35 1
  35   21   22 ar
  36   21   36 1
  37   22   23 ar
  38   22   37 1
  39   23   24 1
  40   24   25 1
  41   24   38 1
  42   24   39 1
  43   25   40 1
  44   25   41 1
  45   25   42 1

#	End of record

