#	Name: ASD02560291
#	Creating user name:	WinNT
#	Creation time:	15. 06. 2019 20:25

#	Modifying user name:	WinNT
#	Modification time:	15. 06. 2019 20:25

#	Program:	/corina/corina34_cracker 3.40 0067  02.08.2006

@<TRIPOS>MOLECULE
ASD02560291
  49   51    0    0    0
SMALL
NO_CHARGES


@<TRIPOS>ATOM
   1 N1             0.4708     1.3220    -0.0990 N.ar    
   2 C2             0.4589    -0.0063    -0.0979 C.ar    
   3 C3             1.6527    -0.6920     0.1196 C.ar    
   4 C4             2.8044     0.0442     0.3258 C.ar    
   5 N5             2.7367     1.3673     0.3103 N.ar    
   6 C6             1.5915     1.9852     0.1018 C.ar    
   7 O7            -0.6963    -0.6842    -0.3044 O.3     
   8 C8            -1.8293     0.0349    -0.5105 C.ar    
   9 C9            -4.1414     1.5031    -0.9310 C.ar    
  10 C10           -3.7686     1.1389     0.3658 C.ar    
  11 C11           -2.6182     0.4097     0.5704 C.ar    
  12 C12           -2.1937     0.3990    -1.8012 C.ar    
  13 C13           -3.3421     1.1289    -2.0147 C.ar    
  14 C14           -2.2147     0.0174     1.9684 C.3     
  15 C15           -1.3310    -0.0050    -2.9689 C.3     
  16 C16           -5.3366     2.2611    -1.1484 C.1     
  17 N17           -6.2848     2.8625    -1.3209 N.1     
  18 S18            1.5582     3.7469     0.0908 S.o2    
  19 C19            1.2369     4.2043     1.8166 C.3     
  20 C20            1.1851     5.7056     1.9370 C.2     
  21 N21            0.9569     6.2780     3.1356 N.am    
  22 C22            1.0051     7.6665     3.2663 C.ar    
  23 O23            1.3487     6.3987     0.9553 O.2     
  24 C24            0.5949     9.8474     2.3573 C.ar    
  25 C25            0.5484     8.4770     2.2321 C.ar    
  26 C26            1.5046     8.2367     4.4326 C.ar    
  27 C27            1.5538     9.6064     4.5650 C.ar    
  28 C28            1.1010    10.4240     3.5257 C.ar    
  29 O29            2.8763     4.1199    -0.2868 O.2     
  30 O30            0.4423     4.0712    -0.7270 O.2     
  31 C31            1.1510    11.8488     3.6596 C.1     
  32 N32            1.1907    12.9792     3.7658 N.1     
  33 H33            1.6773    -1.7717     0.1271 H       
  34 H34            3.7477    -0.4530     0.4979 H       
  35 H35           -4.3835     1.4260     1.2059 H       
  36 H36           -3.6265     1.4083    -3.0184 H       
  37 H37           -2.6541    -0.9490     2.2156 H       
  38 H38           -1.1285    -0.0516     2.0272 H       
  39 H39           -2.5698     0.7690     2.6735 H       
  40 H40           -1.6591    -0.9741    -3.3449 H       
  41 H41           -1.4179     0.7400    -3.7598 H       
  42 H42           -0.2920    -0.0732    -2.6466 H       
  43 H43            0.2836     3.7813     2.1331 H       
  44 H44            2.0348     3.8164     2.4498 H       
  45 H45            0.7591     5.7248     3.9075 H       
  46 H46            0.2401    10.4761     1.5540 H       
  47 H47            0.1571     8.0308     1.3298 H       
  48 H48            1.8540     7.6043     5.2354 H       
  49 H49            1.9414    10.0484     5.4710 H       
@<TRIPOS>BOND
   1    1    2 ar
   2    1    6 ar
   3    2    3 ar
   4    2    7 1
   5    3    4 ar
   6    3   33 1
   7    4    5 ar
   8    4   34 1
   9    5    6 ar
  10    6   18 1
  11    7    8 1
  12    8   12 ar
  13    8   11 ar
  14    9   10 ar
  15    9   13 ar
  16    9   16 1
  17   10   11 ar
  18   10   35 1
  19   11   14 1
  20   12   13 ar
  21   12   15 1
  22   13   36 1
  23   14   37 1
  24   14   38 1
  25   14   39 1
  26   15   40 1
  27   15   41 1
  28   15   42 1
  29   16   17 3
  30   18   19 1
  31   18   29 2
  32   18   30 2
  33   19   20 1
  34   19   43 1
  35   19   44 1
  36   20   21 am
  37   20   23 2
  38   21   22 1
  39   21   45 1
  40   22   26 ar
  41   22   25 ar
  42   24   25 ar
  43   24   28 ar
  44   24   46 1
  45   25   47 1
  46   26   27 ar
  47   26   48 1
  48   27   28 ar
  49   27   49 1
  50   28   31 1
  51   31   32 3

#	End of record

