#	Name: ASD01948183
#	Creating user name:	WinNT
#	Creation time:	15. 06. 2019 20:13

#	Modifying user name:	WinNT
#	Modification time:	15. 06. 2019 20:13

#	Program:	/corina/corina34_cracker 3.40 0067  02.08.2006

@<TRIPOS>MOLECULE
ASD01948183
  50   52    0    0    0
SMALL
NO_CHARGES


@<TRIPOS>ATOM
   1 C1            -2.4076     2.4895    -2.7254 C.ar    
   2 C2            -1.8159     1.3276    -2.2665 C.ar    
   3 C3            -0.4524     1.1457    -2.4032 C.ar    
   4 C4             0.3193     2.1255    -2.9993 C.ar    
   5 C5            -0.2725     3.2870    -3.4591 C.ar    
   6 C6            -1.6358     3.4696    -3.3211 C.ar    
   7 C7            -2.6571     0.2594    -1.6166 C.3     
   8 O8            -3.1208    -0.6537    -2.6132 O.3     
   9 C9            -3.8382    -1.7724    -2.0878 C.3     
  10 C10           -4.9447    -2.1734    -3.0655 C.3     
  11 C11           -2.8786    -2.9481    -1.8935 C.3     
  12 C12           -3.6755    -4.2017    -1.5274 C.3     
  13 S13           -4.5173    -4.1523     0.0787 S.o2    
  14 O14           -5.4042    -3.0440     0.1430 O.2     
  15 O15           -4.9424    -5.4538     0.4592 O.2     
  16 O16           -3.4173    -3.8110     1.0737 O.3     
  17 C17           -4.3670    -4.9564    -2.6645 C.3     
  18 C18           -3.1251    -5.5504    -1.9953 C.3     
  19 O19           -4.3589    -2.6381    -4.2833 O.3     
  20 C20           -5.3112    -3.0399    -5.2700 C.3     
  21 C21           -4.5869    -3.5090    -6.5055 C.ar    
  22 C22           -4.2349    -4.8393    -6.6371 C.ar    
  23 C23           -3.5704    -5.2696    -7.7704 C.ar    
  24 C24           -3.2584    -4.3697    -8.7722 C.ar    
  25 C25           -3.6112    -3.0395    -8.6410 C.ar    
  26 C26           -4.2795    -2.6101    -7.5097 C.ar    
  27 H27           -3.4735     2.6297    -2.6227 H       
  28 H28            0.0100     0.2382    -2.0440 H       
  29 H29            1.3847     1.9837    -3.1055 H       
  30 H30            0.3305     4.0528    -3.9242 H       
  31 H31           -2.0983     4.3769    -3.6807 H       
  32 H32           -2.0578    -0.2782    -0.8819 H       
  33 H33           -3.5113     0.7210    -1.1211 H       
  34 H34           -4.2808    -1.5024    -1.1290 H       
  35 H35           -5.5475    -2.9681    -2.6259 H       
  36 H36           -5.5769    -1.3101    -3.2727 H       
  37 H37           -2.3282    -3.1244    -2.8177 H       
  38 H38           -2.1775    -2.7161    -1.0918 H       
  39 H39           -3.7209    -3.7490     1.9897 H       
  40 H40           -5.3276    -5.4236    -2.4474 H       
  41 H41           -4.2543    -4.5598    -3.6735 H       
  42 H42           -2.1954    -5.5446    -2.5643 H       
  43 H43           -3.2690    -6.4082    -1.3383 H       
  44 H44           -5.9216    -3.8526    -4.8762 H       
  45 H45           -5.9511    -2.1945    -5.5230 H       
  46 H46           -4.4786    -5.5424    -5.8544 H       
  47 H47           -3.2948    -6.3088    -7.8729 H       
  48 H48           -2.7386    -4.7057    -9.6573 H       
  49 H49           -3.3671    -2.3364    -9.4235 H       
  50 H50           -4.5552    -1.5709    -7.4072 H       
@<TRIPOS>BOND
   1    1    2 ar
   2    1    6 ar
   3    1   27 1
   4    2    3 ar
   5    2    7 1
   6    3    4 ar
   7    3   28 1
   8    4    5 ar
   9    4   29 1
  10    5    6 ar
  11    5   30 1
  12    6   31 1
  13    7    8 1
  14    7   32 1
  15    7   33 1
  16    8    9 1
  17    9   10 1
  18    9   11 1
  19    9   34 1
  20   10   19 1
  21   10   35 1
  22   10   36 1
  23   11   12 1
  24   11   37 1
  25   11   38 1
  26   12   13 1
  27   12   17 1
  28   12   18 1
  29   13   14 2
  30   13   15 2
  31   13   16 1
  32   16   39 1
  33   17   18 1
  34   17   40 1
  35   17   41 1
  36   18   42 1
  37   18   43 1
  38   19   20 1
  39   20   21 1
  40   20   44 1
  41   20   45 1
  42   21   22 ar
  43   21   26 ar
  44   22   23 ar
  45   22   46 1
  46   23   24 ar
  47   23   47 1
  48   24   25 ar
  49   24   48 1
  50   25   26 ar
  51   25   49 1
  52   26   50 1

#	End of record

