#	Name: ASD03082282
#	Creating user name:	WinNT
#	Creation time:	15. 06. 2019 20:27

#	Modifying user name:	WinNT
#	Modification time:	15. 06. 2019 20:27

#	Program:	/corina/corina34_cracker 3.40 0067  02.08.2006

@<TRIPOS>MOLECULE
ASD03082282
  46   48    0    0    0
SMALL
NO_CHARGES


@<TRIPOS>ATOM
   1 N1             0.0241     1.4275    -0.1362 N.pl3   
   2 N2            -0.0193     0.0246    -0.1787 N.2     
   3 C3             1.2013    -0.4031     0.0508 C.2     
   4 N4             2.0027     0.6470     0.2338 N.2     
   5 C5             1.3077     1.7613     0.1242 C.2     
   6 N6             1.5961    -1.7416     0.0960 N.pl3   
   7 C7             2.9482    -2.0671     0.2318 C.ar    
   8 C8             3.9239    -1.1769    -0.1965 C.ar    
   9 C9             5.2637    -1.5032    -0.0596 C.ar    
  10 C10            5.6273    -2.7181     0.5049 C.ar    
  11 C11            4.6550    -3.6029     0.9306 C.ar    
  12 C12            3.3182    -3.2794     0.8009 C.ar    
  13 O13            6.2212    -0.6344    -0.4783 O.3     
  14 C14            1.8392     3.1359     0.2614 C.ar    
  15 C15           -1.0980     2.3471    -0.3399 C.3     
  16 C16            3.2083     3.3934     0.1335 C.ar    
  17 C17            3.6607     4.6900     0.2685 C.ar    
  18 N18            2.8218     5.6779     0.5144 N.ar    
  19 C19            1.5241     5.4787     0.6422 C.ar    
  20 C20            0.9856     4.2144     0.5169 C.ar    
  21 C21           -1.7831     2.6033     0.9777 C.2     
  22 N22           -2.8501     3.4248     1.0339 N.am    
  23 O23           -1.3743     2.0704     1.9875 O.2     
  24 C24           -3.5161     3.6739     2.3148 C.3     
  25 C25           -3.3440     4.0686    -0.1859 C.3     
  26 C26            7.5817    -1.0361    -0.3063 C.3     
  27 F27            7.8117    -2.2196    -1.0160 F       
  28 F28            8.4288    -0.0319    -0.7870 F       
  29 F29            7.8365    -1.2502     1.0526 F       
  30 H30            0.9317    -2.4456     0.0331 H       
  31 H31            3.6392    -0.2323    -0.6358 H       
  32 H32            6.6715    -2.9724     0.6111 H       
  33 H33            4.9408    -4.5476     1.3691 H       
  34 H34            2.5603    -3.9709     1.1382 H       
  35 H35           -0.7274     3.2883    -0.7458 H       
  36 H36           -1.8081     1.9046    -1.0386 H       
  37 H37            3.9008     2.5894    -0.0674 H       
  38 H38            4.7159     4.8988     0.1718 H       
  39 H39            0.8738     6.3171     0.8438 H       
  40 H40           -0.0779     4.0587     0.6224 H       
  41 H41           -3.0573     4.5346     2.8015 H       
  42 H42           -4.5732     3.8753     2.1415 H       
  43 H43           -3.4132     2.7973     2.9543 H       
  44 H44           -4.0904     3.4294    -0.6574 H       
  45 H45           -3.7948     5.0283     0.0668 H       
  46 H46           -2.5141     4.2271    -0.8746 H       
@<TRIPOS>BOND
   1    1    2 1
   2    1    5 1
   3    1   15 1
   4    2    3 2
   5    3    4 1
   6    3    6 1
   7    4    5 2
   8    5   14 1
   9    6    7 1
  10    6   30 1
  11    7    8 ar
  12    7   12 ar
  13    8    9 ar
  14    8   31 1
  15    9   10 ar
  16    9   13 1
  17   10   11 ar
  18   10   32 1
  19   11   12 ar
  20   11   33 1
  21   12   34 1
  22   13   26 1
  23   14   16 ar
  24   14   20 ar
  25   15   21 1
  26   15   35 1
  27   15   36 1
  28   16   17 ar
  29   16   37 1
  30   17   18 ar
  31   17   38 1
  32   18   19 ar
  33   19   20 ar
  34   19   39 1
  35   20   40 1
  36   21   22 am
  37   21   23 2
  38   22   24 1
  39   22   25 1
  40   24   41 1
  41   24   42 1
  42   24   43 1
  43   25   44 1
  44   25   45 1
  45   25   46 1
  46   26   27 1
  47   26   28 1
  48   26   29 1

#	End of record

