#	Name: ASD02390005
#	Creating user name:	WinNT
#	Creation time:	15. 06. 2019 20:20

#	Modifying user name:	WinNT
#	Modification time:	15. 06. 2019 20:20

#	Program:	/corina/corina34_cracker 3.40 0067  02.08.2006

@<TRIPOS>MOLECULE
ASD02390005
  36   38    0    0    0
SMALL
NO_CHARGES


@<TRIPOS>ATOM
   1 C1            -0.0165     1.3625     0.0095 C.2     
   2 C2             0.0021    -0.0041     0.0020 C.2     
   3 C3            -1.3254    -0.6002     0.0128 C.2     
   4 C4            -2.2946     0.3184     0.0234 C.2     
   5 S5            -1.6164     1.9412     0.0353 S.3     
   6 C6             1.2364    -0.7911    -0.0157 C.2     
   7 O7             1.7926    -1.1469    -1.1919 O.3     
   8 O8             1.7605    -1.1240     1.0304 O.2     
   9 N9             1.1114     2.1655     0.0031 N.am    
  10 C10            0.9836     3.5071     0.0115 C.2     
  11 O11           -0.1234     4.0128     0.0248 O.2     
  12 C12            2.1777     4.3573     0.0047 C.2     
  13 C13           -1.5580    -2.1014     0.0217 C.3     
  14 C14           -2.9021    -2.4276    -0.6222 C.3     
  15 C15           -3.9955    -2.4252     0.4439 C.3     
  16 C16           -4.0989    -1.0402     1.0767 C.3     
  17 C17           -3.7795     0.0199     0.0240 C.3     
  18 C18            2.1907     5.7231     0.0119 C.2     
  19 C19            3.5387     6.1137     0.0011 C.2     
  20 C20            4.2802     4.9840    -0.0121 C.2     
  21 O21            3.4566     3.9278    -0.0040 O.3     
  22 H22            2.6073    -1.6663    -1.1530 H       
  23 H23            1.9937     1.7624    -0.0075 H       
  24 H24           -0.7612    -2.5939    -0.5357 H       
  25 H25           -1.5530    -2.4619     1.0503 H       
  26 H26           -3.1326    -1.6789    -1.3801 H       
  27 H27           -2.8519    -3.4116    -1.0883 H       
  28 H28           -4.9493    -2.6859    -0.0149 H       
  29 H29           -3.7527    -3.1579     1.2135 H       
  30 H30           -5.1103    -0.8865     1.4528 H       
  31 H31           -3.3881    -0.9620     1.8993 H       
  32 H32           -4.3318     0.9320     0.2501 H       
  33 H33           -4.0753    -0.3459    -0.9592 H       
  34 H34            1.3304     6.3759     0.0233 H       
  35 H35            3.9130     7.1268     0.0024 H       
  36 H36            5.3593     4.9401    -0.0229 H       
@<TRIPOS>BOND
   1    1    2 2
   2    1    9 1
   3    1    5 1
   4    2    3 1
   5    2    6 1
   6    3    4 2
   7    3   13 1
   8    4    5 1
   9    4   17 1
  10    6    7 1
  11    6    8 2
  12    7   22 1
  13    9   10 am
  14    9   23 1
  15   10   11 2
  16   10   12 1
  17   12   18 2
  18   12   21 1
  19   13   14 1
  20   13   24 1
  21   13   25 1
  22   14   15 1
  23   14   26 1
  24   14   27 1
  25   15   16 1
  26   15   28 1
  27   15   29 1
  28   16   17 1
  29   16   30 1
  30   16   31 1
  31   17   32 1
  32   17   33 1
  33   18   19 1
  34   18   34 1
  35   19   20 2
  36   19   35 1
  37   20   21 1
  38   20   36 1

#	End of record

