#	Name: ASD01918516
#	Creating user name:	WinNT
#	Creation time:	15. 06. 2019 20:11

#	Modifying user name:	WinNT
#	Modification time:	15. 06. 2019 20:11

#	Program:	/corina/corina34_cracker 3.40 0067  02.08.2006

@<TRIPOS>MOLECULE
ASD01918516
  42   45    0    0    0
SMALL
NO_CHARGES


@<TRIPOS>ATOM
   1 C1            -0.0187     1.5287     0.0104 C.3     
   2 C2             0.0021    -0.0041     0.0020 C.3     
   3 C3            -1.4208    -0.5613    -0.0707 C.3     
   4 N4            -2.2360     0.0167     1.0035 N.pl3   
   5 C5            -1.9176     1.1975     1.6346 C.2     
   6 C6            -0.7284     1.9795     1.2794 C.2     
   7 N7            -3.3174    -0.4429     1.5124 N.2     
   8 C8            -3.7684     0.3463     2.4585 C.2     
   9 C9            -2.8896     1.4290     2.5748 C.2     
  10 C10            1.3923     2.0579    -0.0002 C.ar    
  11 C11            1.8188     2.8666    -1.0371 C.ar    
  12 C12            3.1127     3.3522    -1.0481 C.ar    
  13 C13            3.5517     2.2232     1.0210 C.ar    
  14 C14            2.2574     1.7389     1.0299 C.ar    
  15 C15            3.9817     3.0287    -0.0199 C.ar    
  16 F16            5.2468     3.5027    -0.0297 F       
  17 O17           -0.3397     2.9155     1.9469 O.2     
  18 C18           -5.0149     0.1258     3.2763 C.3     
  19 O19           -5.1723     1.2011     4.2041 O.3     
  20 C20           -6.2554     1.1553     5.0237 C.ar    
  21 C21           -6.4700     2.1667     5.9488 C.ar    
  22 C22           -7.5717     2.1177     6.7808 C.ar    
  23 C23           -8.4601     1.0619     6.6922 C.ar    
  24 C24           -8.2482     0.0525     5.7714 C.ar    
  25 C25           -7.1513     0.1000     4.9329 C.ar    
  26 H26           -0.5566     1.8951    -0.8640 H       
  27 H27            0.5685    -0.3510    -0.8622 H       
  28 H28            0.4821    -0.3620     0.9128 H       
  29 H29           -1.8603    -0.3081    -1.0355 H       
  30 H30           -1.3915    -1.6453     0.0398 H       
  31 H31           -2.9608     2.2642     3.2558 H       
  32 H32            1.1408     3.1188    -1.8390 H       
  33 H33            3.4459     3.9834    -1.8586 H       
  34 H34            4.2273     1.9738     1.8257 H       
  35 H35            1.9217     1.1106     1.8416 H       
  36 H36           -5.8808     0.0864     2.6155 H       
  37 H37           -4.9304    -0.8146     3.8210 H       
  38 H38           -5.7762     2.9913     6.0187 H       
  39 H39           -7.7390     2.9046     7.5014 H       
  40 H40           -9.3208     1.0255     7.3436 H       
  41 H41           -8.9431    -0.7715     5.7046 H       
  42 H42           -6.9862    -0.6887     4.2138 H       
@<TRIPOS>BOND
   1    1    2 1
   2    1   10 1
   3    1    6 1
   4    1   26 1
   5    2    3 1
   6    2   27 1
   7    2   28 1
   8    3    4 1
   9    3   29 1
  10    3   30 1
  11    4    5 1
  12    4    7 1
  13    5    6 1
  14    5    9 2
  15    6   17 2
  16    7    8 2
  17    8    9 1
  18    8   18 1
  19    9   31 1
  20   10   11 ar
  21   10   14 ar
  22   11   12 ar
  23   11   32 1
  24   12   15 ar
  25   12   33 1
  26   13   14 ar
  27   13   15 ar
  28   13   34 1
  29   14   35 1
  30   15   16 1
  31   18   19 1
  32   18   36 1
  33   18   37 1
  34   19   20 1
  35   20   21 ar
  36   20   25 ar
  37   21   22 ar
  38   21   38 1
  39   22   23 ar
  40   22   39 1
  41   23   24 ar
  42   23   40 1
  43   24   25 ar
  44   24   41 1
  45   25   42 1

#	End of record

