#	Name: ASD01010021
#	Creating user name:	WinNT
#	Creation time:	15. 06. 2019 18:56

#	Modifying user name:	WinNT
#	Modification time:	15. 06. 2019 18:56

#	Program:	/corina/corina34_cracker 3.40 0067  02.08.2006

@<TRIPOS>MOLECULE
ASD01010021
  15   15    0    0    0
SMALL
NO_CHARGES


@<TRIPOS>ATOM
   1 C1            -0.0180     1.4731     0.0101 C.2     
   2 C2             0.0021    -0.0041     0.0020 C.ar    
   3 C3             1.2188    -0.6885    -0.0133 C.ar    
   4 C4             1.2309    -2.0692    -0.0209 C.ar    
   5 C5             0.0397    -2.7748    -0.0133 C.ar    
   6 C6            -1.1703    -2.1018     0.0014 C.ar    
   7 C7            -1.1956    -0.7214     0.0154 C.ar    
   8 O8             1.0256     2.0947     0.0035 O.2     
   9 O9            -1.1936     2.1307     0.0193 O.3     
  10 Cl10          -2.6585    -2.9956     0.0096 Cl      
  11 Cl11           2.7428    -2.9221    -0.0404 Cl      
  12 H12            2.1487    -0.1392    -0.0195 H       
  13 H13            0.0543    -3.8547    -0.0193 H       
  14 H14           -2.1399    -0.1976     0.0321 H       
  15 H15           -1.1561     3.0970     0.0244 H       
@<TRIPOS>BOND
   1    1    2 1
   2    1    8 2
   3    1    9 1
   4    2    3 ar
   5    2    7 ar
   6    3    4 ar
   7    3   12 1
   8    4    5 ar
   9    4   11 1
  10    5    6 ar
  11    5   13 1
  12    6    7 ar
  13    6   10 1
  14    7   14 1
  15    9   15 1

#	End of record

