#	Name: ASD00431322
#	Creating user name:	WinNT
#	Creation time:	15. 06. 2019 18:35

#	Modifying user name:	WinNT
#	Modification time:	15. 06. 2019 18:35

#	Program:	/corina/corina34_cracker 3.40 0067  02.08.2006

@<TRIPOS>MOLECULE
ASD00431322
  44   47    0    0    0
SMALL
NO_CHARGES


@<TRIPOS>ATOM
   1 C1             0.1634     0.9936     0.1785 C.3     
   2 C2            -0.0172    -0.4427     0.6737 C.3     
   3 O3             2.5665     1.0342    -0.6604 O.3     
   4 N4             3.6510     1.4727    -0.3545 N.2     
   5 C5             3.5933     2.1488     0.7695 C.2     
   6 C6             2.2335     2.0939     1.1931 C.2     
   7 C7             1.6230     1.3643     0.2337 C.2     
   8 S8             4.6057     3.7285     2.9666 S.3     
   9 C9             6.2792     4.0694     2.8928 C.2     
  10 N10            6.8003     3.5387     1.8296 N.2     
  11 C11            5.9932     2.8675     1.0376 C.2     
  12 C12            4.7108     2.8279     1.4561 C.2     
  13 O13            6.9631     4.7910     3.8122 O.3     
  14 C14            8.2572     5.1085     3.5406 C.ar    
  15 C15            9.0512     5.6862     4.5224 C.ar    
  16 C16           10.3663     6.0082     4.2459 C.ar    
  17 C17           10.8926     5.7542     2.9877 C.ar    
  18 C18           10.0990     5.1776     2.0073 C.ar    
  19 C19            8.7858     4.8502     2.2849 C.ar    
  20 O20           12.1866     6.0710     2.7155 O.3     
  21 C21           12.6623     5.7817     1.3994 C.3     
  22 C22           14.1281     6.2044     1.2826 C.3     
  23 C23           14.8582     5.8698    -0.0196 C.3     
  24 C24           14.4655     7.3163     0.2872 C.3     
  25 Cl25           8.3919     6.0044     6.0965 Cl      
  26 N26           -0.3164     1.0982    -1.2060 N.3     
  27 H27           -0.4078     1.6712     0.8131 H       
  28 H28            0.3388    -0.5203     1.7010 H       
  29 H29           -1.0729    -0.7108     0.6338 H       
  30 H30            0.5540    -1.1203     0.0391 H       
  31 H31            1.7934     2.5333     2.0760 H       
  32 H32            6.3281     2.3890     0.1292 H       
  33 H33           10.9842     6.4579     5.0090 H       
  34 H34           10.5090     4.9807     1.0277 H       
  35 H35            8.1696     4.3968     1.5226 H       
  36 H36           12.5764     4.7119     1.2090 H       
  37 H37           12.0668     6.3297     0.6692 H       
  38 H38           14.7041     6.1643     2.2071 H       
  39 H39           15.9146     5.6099     0.0481 H       
  40 H40           14.2943     5.3484    -0.7931 H       
  41 H41           13.6432     7.7467    -0.2844 H       
  42 H42           15.2635     8.0081     0.5569 H       
  43 H43            0.2396     0.5278    -1.8254 H       
  44 H44           -1.2934     0.8545    -1.2696 H       
@<TRIPOS>BOND
   1    1    2 1
   2    1    7 1
   3    1   26 1
   4    1   27 1
   5    2   28 1
   6    2   29 1
   7    2   30 1
   8    3    4 1
   9    3    7 1
  10    4    5 2
  11    5    6 1
  12    5   12 1
  13    6    7 2
  14    6   31 1
  15    8    9 1
  16    8   12 1
  17    9   10 2
  18    9   13 1
  19   10   11 1
  20   11   12 2
  21   11   32 1
  22   13   14 1
  23   14   15 ar
  24   14   19 ar
  25   15   16 ar
  26   15   25 1
  27   16   17 ar
  28   16   33 1
  29   17   18 ar
  30   17   20 1
  31   18   19 ar
  32   18   34 1
  33   19   35 1
  34   20   21 1
  35   21   22 1
  36   21   36 1
  37   21   37 1
  38   22   23 1
  39   22   24 1
  40   22   38 1
  41   23   24 1
  42   23   39 1
  43   23   40 1
  44   24   41 1
  45   24   42 1
  46   26   43 1
  47   26   44 1

#	End of record

