#	Name: ASD01916424
#	Creating user name:	WinNT
#	Creation time:	15. 06. 2019 20:07

#	Modifying user name:	WinNT
#	Modification time:	15. 06. 2019 20:07

#	Program:	/corina/corina34_cracker 3.40 0067  02.08.2006

@<TRIPOS>MOLECULE
ASD01916424
  39   41    0    0    0
SMALL
NO_CHARGES


@<TRIPOS>ATOM
   1 C1            -0.0168     1.3912     0.0097 C.ar    
   2 C2             0.0021    -0.0041     0.0020 C.ar    
   3 C3             1.2204    -0.6594    -0.0131 C.ar    
   4 C4             2.3820     0.1007    -0.0201 C.ar    
   5 C5             2.2905     1.4803    -0.0118 C.ar    
   6 N6             1.1180     2.0808     0.0026 N.ar    
   7 C7            -1.2697     2.0847     0.0194 C.1     
   8 C8            -2.2967     2.6533     0.0273 C.1     
   9 C9            -3.5846     3.3662     0.0372 C.3     
  10 C10           -3.3321     4.8752     0.0443 C.3     
  11 N11           -4.6138     5.5848     0.0541 N.pl3   
  12 N12           -5.3263     5.9766     1.1939 N.2     
  13 C13           -6.4191     6.5830     0.8123 C.2     
  14 C14           -6.4415     6.5991    -0.5959 C.2     
  15 C15           -5.3078     5.9783    -1.0327 C.2     
  16 C16           -7.5035     7.1887    -1.4498 C.ar    
  17 C17           -8.8407     6.8734    -1.2199 C.ar    
  18 C18           -9.8240     7.4247    -2.0164 C.ar    
  19 C19           -9.4835     8.2885    -3.0415 C.ar    
  20 C20           -8.1572     8.6047    -3.2744 C.ar    
  21 C21           -7.1665     8.0638    -2.4800 C.ar    
  22 C22           -4.9056     5.7679    -2.4697 C.3     
  23 H23           -0.9212    -0.5644     0.0082 H       
  24 H24            1.2668    -1.7384    -0.0190 H       
  25 H25            3.3484    -0.3812    -0.0315 H       
  26 H26            3.1928     2.0739    -0.0172 H       
  27 H27           -4.1555     3.0975    -0.8515 H       
  28 H28           -4.1471     3.0878     0.9284 H       
  29 H29           -2.7611     5.1440     0.9330 H       
  30 H30           -2.7695     5.1536    -0.8469 H       
  31 H31           -7.1739     6.9988     1.4632 H       
  32 H32           -9.1076     6.1984    -0.4202 H       
  33 H33          -10.8610     7.1809    -1.8390 H       
  34 H34          -10.2559     8.7175    -3.6626 H       
  35 H35           -7.8967     9.2792    -4.0766 H       
  36 H36           -6.1316     8.3148    -2.6598 H       
  37 H37           -5.3067     4.8183    -2.8240 H       
  38 H38           -5.3010     6.5797    -3.0802 H       
  39 H39           -3.8183     5.7535    -2.5443 H       
@<TRIPOS>BOND
   1    1    2 ar
   2    1    6 ar
   3    1    7 1
   4    2    3 ar
   5    2   23 1
   6    3    4 ar
   7    3   24 1
   8    4    5 ar
   9    4   25 1
  10    5    6 ar
  11    5   26 1
  12    7    8 3
  13    8    9 1
  14    9   10 1
  15    9   27 1
  16    9   28 1
  17   10   11 1
  18   10   29 1
  19   10   30 1
  20   11   12 1
  21   11   15 1
  22   12   13 2
  23   13   14 1
  24   13   31 1
  25   14   15 2
  26   14   16 1
  27   15   22 1
  28   16   17 ar
  29   16   21 ar
  30   17   18 ar
  31   17   32 1
  32   18   19 ar
  33   18   33 1
  34   19   20 ar
  35   19   34 1
  36   20   21 ar
  37   20   35 1
  38   21   36 1
  39   22   37 1
  40   22   38 1
  41   22   39 1

#	End of record

