#	Name: ASD01140131
#	Creating user name:	WinNT
#	Creation time:	15. 06. 2019 19:00

#	Modifying user name:	WinNT
#	Modification time:	15. 06. 2019 19:00

#	Program:	/corina/corina34_cracker 3.40 0067  02.08.2006

@<TRIPOS>MOLECULE
ASD01140131
  26   27    0    0    0
SMALL
NO_CHARGES


@<TRIPOS>ATOM
   1 C1            -0.0166     1.3756     0.0096 C.ar    
   2 C2             0.0021    -0.0041     0.0020 C.ar    
   3 C3             1.2193    -0.6822    -0.0133 C.ar    
   4 C4             2.4129     0.0369    -0.0209 C.ar    
   5 C5             2.3849     1.4163    -0.0132 C.ar    
   6 C6             1.1724     2.0866     0.0021 C.ar    
   7 C7             1.2444    -2.1659    -0.0210 C.ar    
   8 C8             0.0472    -2.8836    -0.0129 C.ar    
   9 C9             0.0630    -4.2621    -0.0196 C.ar    
  10 C10            1.2698    -4.9467    -0.0348 C.ar    
  11 C11            2.4786    -4.2346    -0.0435 C.ar    
  12 C12            2.4595    -2.8394    -0.0420 C.ar    
  13 O13            1.2809    -6.3029    -0.0408 O.3     
  14 C14            3.7634    -4.9574    -0.0597 C.2     
  15 O15            3.7769    -6.1723    -0.0655 O.2     
  16 O16            4.9227    -4.2706    -0.0680 O.3     
  17 F17            1.1496     3.4373     0.0095 F       
  18 H18           -0.9596     1.9020     0.0169 H       
  19 H19           -0.9253    -0.5575     0.0083 H       
  20 H20            3.3585    -0.4848    -0.0324 H       
  21 H21            3.3095     1.9745    -0.0187 H       
  22 H22           -0.8955    -2.3568    -0.0011 H       
  23 H23           -0.8670    -4.8111    -0.0125 H       
  24 H24            3.3863    -2.2849    -0.0490 H       
  25 H25            1.2752    -6.6923    -0.9259 H       
  26 H26            5.7395    -4.7881    -0.0785 H       
@<TRIPOS>BOND
   1    1    2 ar
   2    1    6 ar
   3    1   18 1
   4    2    3 ar
   5    2   19 1
   6    3    4 ar
   7    3    7 1
   8    4    5 ar
   9    4   20 1
  10    5    6 ar
  11    5   21 1
  12    6   17 1
  13    7    8 ar
  14    7   12 ar
  15    8    9 ar
  16    8   22 1
  17    9   10 ar
  18    9   23 1
  19   10   11 ar
  20   10   13 1
  21   11   12 ar
  22   11   14 1
  23   12   24 1
  24   13   25 1
  25   14   15 2
  26   14   16 1
  27   16   26 1

#	End of record

