#	Name: ASD01884146
#	Creating user name:	WinNT
#	Creation time:	15. 06. 2019 19:47

#	Modifying user name:	WinNT
#	Modification time:	15. 06. 2019 19:47

#	Program:	/corina/corina34_cracker 3.40 0067  02.08.2006

@<TRIPOS>MOLECULE
ASD01884146
  27   28    0    0    0
SMALL
NO_CHARGES


@<TRIPOS>ATOM
   1 C1            -0.0167     1.3803     0.0096 C.ar    
   2 C2             0.0021    -0.0041     0.0020 C.ar    
   3 C3            -1.2102    -0.6833     0.0104 C.ar    
   4 C4            -2.3877     0.0357     0.0260 C.ar    
   5 N5            -2.3756     1.3557     0.0330 N.ar    
   6 C6            -1.2424     2.0400     0.0307 C.ar    
   7 N7            -1.2768     3.4302     0.0388 N.pl3   
   8 N8            -2.5070     4.1005     0.0492 N.am    
   9 Cl9            1.4675     2.2808     0.0003 Cl      
  10 I10            1.8166    -1.0509    -0.0223 I       
  11 C11           -2.5403     5.4478     0.0570 C.2     
  12 C12           -3.8636     6.1688     0.0682 C.3     
  13 C13           -3.6213     7.6794     0.0754 C.3     
  14 C14           -4.8450     8.5917    -0.0311 C.3     
  15 C15           -4.0983     8.4656     1.2983 C.3     
  16 O16           -1.5053     6.0800     0.0550 O.2     
  17 H17           -1.2304    -1.7631     0.0045 H       
  18 H18           -3.3320    -0.4884     0.0322 H       
  19 H19           -0.4490     3.9359     0.0372 H       
  20 H20           -3.3348     3.5948     0.0508 H       
  21 H21           -4.4333     5.8964    -0.8203 H       
  22 H22           -4.4237     5.8863     0.9596 H       
  23 H23           -2.7030     8.0106    -0.4094 H       
  24 H24           -4.7316     9.5232    -0.5857 H       
  25 H25           -5.8227     8.1156    -0.1064 H       
  26 H26           -4.5846     7.9065     2.0977 H       
  27 H27           -3.4935     9.3141     1.6184 H       
@<TRIPOS>BOND
   1    1    2 ar
   2    1    9 1
   3    1    6 ar
   4    2    3 ar
   5    2   10 1
   6    3    4 ar
   7    3   17 1
   8    4    5 ar
   9    4   18 1
  10    5    6 ar
  11    6    7 1
  12    7    8 1
  13    7   19 1
  14    8   11 am
  15    8   20 1
  16   11   12 1
  17   11   16 2
  18   12   13 1
  19   12   21 1
  20   12   22 1
  21   13   14 1
  22   13   15 1
  23   13   23 1
  24   14   15 1
  25   14   24 1
  26   14   25 1
  27   15   26 1
  28   15   27 1

#	End of record

