#	Name: ASD03090298
#	Creating user name:	WinNT
#	Creation time:	15. 06. 2019 20:28

#	Modifying user name:	WinNT
#	Modification time:	15. 06. 2019 20:28

#	Program:	/corina/corina34_cracker 3.40 0067  02.08.2006

@<TRIPOS>MOLECULE
ASD03090298
  48   50    0    0    0
SMALL
NO_CHARGES


@<TRIPOS>ATOM
   1 N1            -0.0166     1.2638    -0.6688 N.ar    
   2 C2             0.1953     0.1899    -1.4030 C.ar    
   3 C3             1.4069    -0.4848    -1.3415 C.ar    
   4 C4             2.4082    -0.0029    -0.4810 C.ar    
   5 C5             2.1320     1.1404     0.2756 C.ar    
   6 C6             0.8985     1.7458     0.1501 C.ar    
   7 C7             3.7158    -0.6853    -0.3782 C.2     
   8 N8             5.7792    -3.4996     0.0468 N.pl3   
   9 C9             7.1638    -3.6292     0.1827 C.ar    
  10 C10            7.8030    -4.7766    -0.2705 C.ar    
  11 C11            9.1720    -4.9045    -0.1360 C.ar    
  12 C12            9.9090    -3.8925     0.4488 C.ar    
  13 C13            9.2759    -2.7438     0.9036 C.ar    
  14 C14            7.9036    -2.6092     0.7658 C.ar    
  15 N15            3.9042    -1.9754    -0.1824 N.2     
  16 C16            5.2115    -2.2383    -0.1441 C.2     
  17 N17            5.8786    -1.1202    -0.3149 N.2     
  18 N18            4.9297    -0.0974    -0.4742 N.pl3   
  19 C19            5.2011     1.3256    -0.6927 C.3     
  20 C20            5.1934     1.6172    -2.1712 C.2     
  21 N21            5.4214     2.8703    -2.6121 N.am    
  22 O22           10.0021    -1.7499     1.4793 O.3     
  23 O23            4.9820     0.7244    -2.9643 O.2     
  24 C24            5.4139     3.1538    -4.0494 C.3     
  25 N25            1.6263    -1.6203    -2.1189 N.pl3   
  26 C26            0.5734    -2.1118    -3.0111 C.3     
  27 C27           11.4126    -1.9541     1.5841 C.3     
  28 F28           11.9553    -2.1243     0.3060 F       
  29 F29           12.0006    -0.8420     2.1962 F       
  30 F30           11.6626    -3.0960     2.3528 F       
  31 H31           -0.5829    -0.1695    -2.0600 H       
  32 H32            2.8736     1.5434     0.9493 H       
  33 H33            0.6788     2.6291     0.7314 H       
  34 H34            5.2124    -4.2859     0.0850 H       
  35 H35            7.2293    -5.5691    -0.7280 H       
  36 H36            9.6671    -5.7973    -0.4882 H       
  37 H37           10.9790    -3.9954     0.5526 H       
  38 H38            7.4095    -1.7161     1.1187 H       
  39 H39            4.4325     1.9218    -0.2008 H       
  40 H40            6.1771     1.5772    -0.2778 H       
  41 H41            5.5904     3.5844    -1.9778 H       
  42 H42            5.6158     4.2125    -4.2119 H       
  43 H43            6.1824     2.5576    -4.5413 H       
  44 H44            4.4378     2.9022    -4.4643 H       
  45 H45            2.4761    -2.0853    -2.0692 H       
  46 H46           -0.3120    -2.3604    -2.4260 H       
  47 H47            0.3233    -1.3392    -3.7382 H       
  48 H48            0.9255    -3.0016    -3.5330 H       
@<TRIPOS>BOND
   1    1    2 ar
   2    1    6 ar
   3    2    3 ar
   4    2   31 1
   5    3    4 ar
   6    3   25 1
   7    4    5 ar
   8    4    7 1
   9    5    6 ar
  10    5   32 1
  11    6   33 1
  12    7   15 2
  13    7   18 1
  14    8    9 1
  15    8   16 1
  16    8   34 1
  17    9   10 ar
  18    9   14 ar
  19   10   11 ar
  20   10   35 1
  21   11   12 ar
  22   11   36 1
  23   12   13 ar
  24   12   37 1
  25   13   14 ar
  26   13   22 1
  27   14   38 1
  28   15   16 1
  29   16   17 2
  30   17   18 1
  31   18   19 1
  32   19   20 1
  33   19   39 1
  34   19   40 1
  35   20   21 am
  36   20   23 2
  37   21   24 1
  38   21   41 1
  39   22   27 1
  40   24   42 1
  41   24   43 1
  42   24   44 1
  43   25   26 1
  44   25   45 1
  45   26   46 1
  46   26   47 1
  47   26   48 1
  48   27   28 1
  49   27   29 1
  50   27   30 1

#	End of record

