#	Name: ASD01913826
#	Creating user name:	WinNT
#	Creation time:	15. 06. 2019 20:02

#	Modifying user name:	WinNT
#	Modification time:	15. 06. 2019 20:02

#	Program:	/corina/corina34_cracker 3.40 0067  02.08.2006

@<TRIPOS>MOLECULE
ASD01913826
  40   42    0    0    0
SMALL
NO_CHARGES


@<TRIPOS>ATOM
   1 C1            -0.0235     1.4277    -0.0323 C.ar    
   2 C2            -0.0024    -0.0041    -0.0276 C.1     
   3 C3             0.0150    -1.1780    -0.0238 C.1     
   4 C4             0.0361    -2.6098    -0.0191 C.ar    
   5 C5            -1.1327    -3.3385     0.2490 C.ar    
   6 C6             0.1560    -5.3344    -0.0280 C.ar    
   7 N7             1.2411    -4.6188    -0.2836 N.ar    
   8 C8             1.2192    -3.3023    -0.2869 C.ar    
   9 C9            -1.0618    -4.7169     0.2422 C.ar    
  10 N10            0.2330    -6.7245    -0.0374 N.am    
  11 C11           -0.8140    -7.5600    -0.0265 C.2     
  12 N12           -0.4748    -8.8557    -0.0393 N.am    
  13 C13            0.9910    -8.9713    -0.0622 C.3     
  14 C14            1.4766    -7.5088    -0.0672 C.3     
  15 O15           -1.9676    -7.1768    -0.0065 O.2     
  16 C16           -1.4149    -9.9793    -0.0318 C.3     
  17 C17            1.4913    -9.7045     1.1840 C.3     
  18 C18            1.4533    -9.6896    -1.3315 C.3     
  19 C19            1.1353     2.1695    -0.2982 C.ar    
  20 N20            1.0803     3.4857    -0.2950 N.ar    
  21 N21           -0.0044     4.1269    -0.0554 N.ar    
  22 C22           -1.1475     3.5189     0.2061 C.ar    
  23 C23           -1.2078     2.1383     0.2237 C.ar    
  24 H24           -2.0646    -2.8334     0.4559 H       
  25 H25            2.1244    -2.7528    -0.4991 H       
  26 H26           -1.9415    -5.3098     0.4446 H       
  27 H27            2.0469    -7.2981    -0.9719 H       
  28 H28            2.0745    -7.3011     0.8202 H       
  29 H29           -2.4361    -9.5986    -0.0146 H       
  30 H30           -1.2672   -10.5827    -0.9275 H       
  31 H31           -1.2409   -10.5927     0.8523 H       
  32 H32            1.0787   -10.7132     1.2023 H       
  33 H33            2.5798    -9.7576     1.1618 H       
  34 H34            1.1719    -9.1651     2.0757 H       
  35 H35            1.1073    -9.1397    -2.2067 H       
  36 H36            2.5420    -9.7427    -1.3428 H       
  37 H37            1.0402   -10.6981    -1.3492 H       
  38 H38            2.0678     1.6651    -0.5042 H       
  39 H39           -2.0359     4.1008     0.4023 H       
  40 H40           -2.1330     1.6229     0.4353 H       
@<TRIPOS>BOND
   1    1    2 1
   2    1   19 ar
   3    1   23 ar
   4    2    3 3
   5    3    4 1
   6    4    5 ar
   7    4    8 ar
   8    5    9 ar
   9    5   24 1
  10    6    7 ar
  11    6   10 1
  12    6    9 ar
  13    7    8 ar
  14    8   25 1
  15    9   26 1
  16   10   11 am
  17   10   14 1
  18   11   12 am
  19   11   15 2
  20   12   13 1
  21   12   16 1
  22   13   14 1
  23   13   17 1
  24   13   18 1
  25   14   27 1
  26   14   28 1
  27   16   29 1
  28   16   30 1
  29   16   31 1
  30   17   32 1
  31   17   33 1
  32   17   34 1
  33   18   35 1
  34   18   36 1
  35   18   37 1
  36   19   20 ar
  37   19   38 1
  38   20   21 ar
  39   21   22 ar
  40   22   23 ar
  41   22   39 1
  42   23   40 1

#	End of record

