#	Name: ASD09080089
#	Creating user name:	WinNT
#	Creation time:	15. 06. 2019 21:20

#	Modifying user name:	WinNT
#	Modification time:	15. 06. 2019 21:20

#	Program:	/corina/corina34_cracker 3.40 0067  02.08.2006

@<TRIPOS>MOLECULE
ASD09080089
  48   48    0    0    0
SMALL
NO_CHARGES


@<TRIPOS>ATOM
   1 C1            -0.0167     1.3831     0.0096 C.ar    
   2 C2             0.0021    -0.0041     0.0020 C.ar    
   3 C3            -1.1854    -0.7098     0.0095 C.ar    
   4 C4            -2.3921    -0.0349     0.0246 C.ar    
   5 C5            -2.4135     1.3476     0.0318 C.ar    
   6 C6            -1.2287     2.0579     0.0306 C.ar    
   7 C7            -3.6860    -0.8073     0.0328 C.3     
   8 C8            -4.1102    -1.0765     1.4779 C.3     
   9 C9            -5.3363    -1.9527     1.4867 C.2     
  10 O10           -6.3580    -1.5569     1.9959 O.2     
  11 O11           -5.2933    -3.1727     0.9288 O.3     
  12 C12           -6.5116    -3.9615     0.9739 C.3     
  13 N13           -4.4128     0.1935     2.1427 N.am    
  14 O14           -4.5937     1.4594     4.0942 O.3     
  15 C15           -4.4678     1.4929     5.5403 C.3     
  16 C16           -3.0288     1.1549     5.9350 C.3     
  17 C17           -4.8217     2.8912     6.0508 C.3     
  18 C18           -5.4205     0.4679     6.1590 C.3     
  19 C19           -4.3156     0.2923     3.4833 C.2     
  20 O20           -3.9771    -0.6719     4.1406 O.2     
  21 O21            1.1501     2.0797     0.0022 O.3     
  22 C22            0.5945     3.7460    -1.9725 C.3     
  23 S23            1.6684     2.4045    -1.3915 S.o2    
  24 O24            2.9886     2.8821    -1.1719 O.2     
  25 O25            1.4330     1.2185    -2.1380 O.2     
  26 H26            0.9443    -0.5317    -0.0101 H       
  27 H27           -1.1713    -1.7897     0.0032 H       
  28 H28           -3.3573     1.8725     0.0432 H       
  29 H29           -1.2459     3.1378     0.0362 H       
  30 H30           -4.4590    -0.2266    -0.4706 H       
  31 H31           -3.5468    -1.7550    -0.4875 H       
  32 H32           -3.3005    -1.5794     2.0066 H       
  33 H33           -6.3401    -4.9228     0.4895 H       
  34 H34           -6.8007    -4.1243     2.0122 H       
  35 H35           -7.3083    -3.4296     0.4540 H       
  36 H36           -4.6830     0.9632     1.6179 H       
  37 H37           -2.3501     1.8852     5.4943 H       
  38 H38           -2.9343     1.1801     7.0206 H       
  39 H39           -2.7767     0.1588     5.5713 H       
  40 H40           -5.8469     3.1319     5.7696 H       
  41 H41           -4.7273     2.9163     7.1364 H       
  42 H42           -4.1430     3.6214     5.6101 H       
  43 H43           -5.1684    -0.5282     5.7953 H       
  44 H44           -5.3260     0.4930     7.2446 H       
  45 H45           -6.4457     0.7087     5.8778 H       
  46 H46            0.6800     4.5979    -1.2978 H       
  47 H47            0.8976     4.0454    -2.9758 H       
  48 H48           -0.4392     3.4010    -1.9929 H       
@<TRIPOS>BOND
   1    1    2 ar
   2    1   21 1
   3    1    6 ar
   4    2    3 ar
   5    2   26 1
   6    3    4 ar
   7    3   27 1
   8    4    5 ar
   9    4    7 1
  10    5    6 ar
  11    5   28 1
  12    6   29 1
  13    7    8 1
  14    7   30 1
  15    7   31 1
  16    8    9 1
  17    8   13 1
  18    8   32 1
  19    9   10 2
  20    9   11 1
  21   11   12 1
  22   12   33 1
  23   12   34 1
  24   12   35 1
  25   13   19 am
  26   13   36 1
  27   14   15 1
  28   14   19 1
  29   15   16 1
  30   15   17 1
  31   15   18 1
  32   16   37 1
  33   16   38 1
  34   16   39 1
  35   17   40 1
  36   17   41 1
  37   17   42 1
  38   18   43 1
  39   18   44 1
  40   18   45 1
  41   19   20 2
  42   21   23 1
  43   22   23 1
  44   22   46 1
  45   22   47 1
  46   22   48 1
  47   23   24 2
  48   23   25 2

#	End of record

