#	Name: ASD05173001
#	Creating user name:	WinNT
#	Creation time:	15. 06. 2019 20:57

#	Modifying user name:	WinNT
#	Modification time:	15. 06. 2019 20:57

#	Program:	/corina/corina34_cracker 3.40 0067  02.08.2006

@<TRIPOS>MOLECULE
ASD05173001
  30   32    0    0    0
SMALL
NO_CHARGES


@<TRIPOS>ATOM
   1 C1             0.0021     1.3552     0.0588 C.ar    
   2 C2             0.0176    -0.0309     0.0859 C.ar    
   3 C3            -1.1669    -0.7321     0.0838 C.ar    
   4 C4            -2.3986    -0.0559     0.0540 C.ar    
   5 C5            -2.4100     1.3382     0.0308 C.ar    
   6 C6            -1.1996     2.0323     0.0372 C.ar    
   7 Cl7            1.4960     2.2396     0.0593 Cl      
   8 Cl8            1.5303    -0.8818     0.1218 Cl      
   9 N9            -3.5195    -0.8221     0.0444 N.2     
  10 C10           -4.5947    -0.6041     0.7097 C.2     
  11 C11           -4.7493     0.6076     1.5908 C.3     
  12 C12           -4.6706     1.8356     0.7195 C.2     
  13 N13           -3.5723     2.0987     0.0110 N.am    
  14 O14           -5.6166     2.5926     0.6628 O.2     
  15 C15           -5.7071    -1.5638     0.6088 C.ar    
  16 C16           -6.8296    -1.4268     1.4305 C.ar    
  17 C17           -7.8677    -2.3295     1.3305 C.ar    
  18 C18           -7.8002    -3.3688     0.4197 C.ar    
  19 C19           -6.6916    -3.5116    -0.3975 C.ar    
  20 C20           -5.6483    -2.6130    -0.3133 C.ar    
  21 I21           -6.6023    -5.0909    -1.7712 I       
  22 H22           -1.1496    -1.8118     0.1049 H       
  23 H23           -1.2036     3.1121     0.0169 H       
  24 H24           -5.7153     0.5753     2.0945 H       
  25 H25           -3.9487     0.6293     2.3302 H       
  26 H26           -3.5859     2.8809    -0.5625 H       
  27 H27           -6.8837    -0.6163     2.1423 H       
  28 H28           -8.7353    -2.2249     1.9651 H       
  29 H29           -8.6163    -4.0724     0.3460 H       
  30 H30           -4.7841    -2.7254    -0.9512 H       
@<TRIPOS>BOND
   1    1    2 ar
   2    1    7 1
   3    1    6 ar
   4    2    3 ar
   5    2    8 1
   6    3    4 ar
   7    3   22 1
   8    4    5 ar
   9    4    9 1
  10    5    6 ar
  11    5   13 1
  12    6   23 1
  13    9   10 2
  14   10   11 1
  15   10   15 1
  16   11   12 1
  17   11   24 1
  18   11   25 1
  19   12   13 am
  20   12   14 2
  21   13   26 1
  22   15   16 ar
  23   15   20 ar
  24   16   17 ar
  25   16   27 1
  26   17   18 ar
  27   17   28 1
  28   18   19 ar
  29   18   29 1
  30   19   20 ar
  31   19   21 1
  32   20   30 1

#	End of record

