#	Name: ASD01916886
#	Creating user name:	WinNT
#	Creation time:	15. 06. 2019 20:08

#	Modifying user name:	WinNT
#	Modification time:	15. 06. 2019 20:08

#	Program:	/corina/corina34_cracker 3.40 0067  02.08.2006

@<TRIPOS>MOLECULE
ASD01916886
  60   64    0    0    0
SMALL
NO_CHARGES


@<TRIPOS>ATOM
   1 C1             0.0035     1.3272     0.1732 C.ar    
   2 C2             0.0422    -0.0319     0.4394 C.ar    
   3 C3             1.2586    -0.6791     0.5850 C.ar    
   4 C4             2.4372     0.0283     0.4657 C.ar    
   5 C5             2.4029     1.3953     0.1980 C.ar    
   6 C6             1.1774     2.0421     0.0519 C.ar    
   7 C7             3.6681     2.1603     0.0694 C.2     
   8 N8             4.8993     1.6517     0.1886 N.2     
   9 N9             3.7604     3.4477    -0.1860 N.2     
  10 N10            5.1291     3.7596    -0.2230 N.pl3   
  11 C11            5.7914     2.6040     0.0166 C.2     
  12 C12            7.2611     2.4400     0.0759 C.ar    
  13 C13            5.7227     5.0749    -0.4754 C.3     
  14 C14            5.8508     5.8261     0.8247 C.2     
  15 O15            5.4825     5.3133     1.8602 O.2     
  16 N16            6.3746     7.0678     0.8367 N.am    
  17 C17            6.5087     7.8185     2.0944 C.3     
  18 C18            7.9491     8.3293     2.2053 C.3     
  19 N19            8.2926     9.0834     0.9923 N.3     
  20 C20            8.2553     8.2235    -0.1981 C.3     
  21 C21            6.8330     7.7059    -0.4067 C.3     
  22 C22            9.5316     9.6997     1.1230 C.ar    
  23 N23           10.2219     9.5540     2.2433 N.ar    
  24 C24           10.0380    10.4595     0.0731 C.ar    
  25 C25           11.4019    10.1217     2.4078 C.ar    
  26 C26           11.9616    10.8932     1.4096 C.ar    
  27 C27           11.2722    11.0667     0.2165 C.ar    
  28 C28            8.0808     3.5478     0.2946 C.ar    
  29 C29            9.4507     3.3917     0.3498 C.ar    
  30 C30           10.0150     2.1397     0.1885 C.ar    
  31 C31            9.2073     1.0321    -0.0295 C.ar    
  32 C32            7.8308     1.1775    -0.0809 C.ar    
  33 O33            9.7670    -0.1962    -0.1878 O.3     
  34 C34           11.1922    -0.2736    -0.1182 C.3     
  35 F35           -1.1096    -0.7281     0.5578 F       
  36 H36           -0.9467     1.8269     0.0561 H       
  37 H37            1.2842    -1.7386     0.7924 H       
  38 H38            3.3849    -0.4768     0.5800 H       
  39 H39            1.1464     3.1014    -0.1559 H       
  40 H40            6.7095     4.9487    -0.9209 H       
  41 H41            5.0850     5.6364    -1.1582 H       
  42 H42            5.8198     8.6632     2.0919 H       
  43 H43            6.2865     7.1637     2.9371 H       
  44 H44            8.0384     8.9798     3.0754 H       
  45 H45            8.6279     7.4832     2.3120 H       
  46 H46            8.5667     8.7971    -1.0711 H       
  47 H47            8.9299     7.3788    -0.0580 H       
  48 H48            6.8234     6.9785    -1.2184 H       
  49 H49            6.1724     8.5382    -0.6492 H       
  50 H50            9.4750    10.5732    -0.8415 H       
  51 H51           11.9363     9.9812     3.3358 H       
  52 H52           12.9277    11.3542     1.5533 H       
  53 H53           11.6887    11.6656    -0.5799 H       
  54 H54            7.6432     4.5272     0.4203 H       
  55 H55           10.0840     4.2499     0.5192 H       
  56 H56           11.0878     2.0232     0.2320 H       
  57 H57            7.2012     0.3165    -0.2505 H       
  58 H58           11.5073    -1.3073    -0.2604 H       
  59 H59           11.6285     0.3499    -0.8985 H       
  60 H60           11.5278     0.0776     0.8576 H       
@<TRIPOS>BOND
   1    1    2 ar
   2    1    6 ar
   3    1   36 1
   4    2    3 ar
   5    2   35 1
   6    3    4 ar
   7    3   37 1
   8    4    5 ar
   9    4   38 1
  10    5    6 ar
  11    5    7 1
  12    6   39 1
  13    7    8 1
  14    7    9 2
  15    8   11 2
  16    9   10 1
  17   10   11 1
  18   10   13 1
  19   11   12 1
  20   12   28 ar
  21   12   32 ar
  22   13   14 1
  23   13   40 1
  24   13   41 1
  25   14   15 2
  26   14   16 am
  27   16   17 1
  28   16   21 1
  29   17   18 1
  30   17   42 1
  31   17   43 1
  32   18   19 1
  33   18   44 1
  34   18   45 1
  35   19   20 1
  36   19   22 1
  37   20   21 1
  38   20   46 1
  39   20   47 1
  40   21   48 1
  41   21   49 1
  42   22   23 ar
  43   22   24 ar
  44   23   25 ar
  45   24   27 ar
  46   24   50 1
  47   25   26 ar
  48   25   51 1
  49   26   27 ar
  50   26   52 1
  51   27   53 1
  52   28   29 ar
  53   28   54 1
  54   29   30 ar
  55   29   55 1
  56   30   31 ar
  57   30   56 1
  58   31   32 ar
  59   31   33 1
  60   32   57 1
  61   33   34 1
  62   34   58 1
  63   34   59 1
  64   34   60 1

#	End of record

