#	Name: ASD01190207
#	Creating user name:	WinNT
#	Creation time:	15. 06. 2019 19:08

#	Modifying user name:	WinNT
#	Modification time:	15. 06. 2019 19:08

#	Program:	/corina/corina34_cracker 3.40 0067  02.08.2006

@<TRIPOS>MOLECULE
ASD01190207
  56   60    0    0    0
SMALL
NO_CHARGES


@<TRIPOS>ATOM
   1 C1             3.3585     1.0911    -1.1979 C.2     
   2 C2             2.9686     0.0422    -0.1885 C.3     
   3 C3             1.8481    -0.8269    -0.7631 C.3     
   4 O4             2.7956     1.1388    -2.2711 O.2     
   5 N5             4.3289     1.9796    -0.9058 N.am    
   6 N6             1.4690    -1.8466     0.2181 N.pl3   
   7 C7             1.9586    -3.1238     0.2536 C.2     
   8 C8             1.4065    -3.7973     1.2752 C.2     
   9 C9             0.4882    -2.8761     1.9489 C.ar    
  10 C10           -0.3597    -2.9853     3.0529 C.ar    
  11 C11           -1.1094    -1.9112     3.4413 C.ar    
  12 C12           -1.0352    -0.7113     2.7469 C.ar    
  13 C13           -0.2058    -0.5818     1.6547 C.ar    
  14 C14            0.5714    -1.6607     1.2455 C.ar    
  15 C15            1.6795    -5.2295     1.6565 C.3     
  16 C16            2.6782    -5.8383     0.6703 C.3     
  17 O17            2.2253    -5.2752     2.9764 O.3     
  18 N18           -3.0635    -8.2468     1.7536 N.pl3   
  19 N19           -2.9286    -8.8199     3.0224 N.2     
  20 C20           -1.8224    -8.4168     3.5805 C.2     
  21 C21           -1.1542    -7.5150     2.6475 C.ar    
  22 C22            0.0402    -6.7869     2.6852 C.ar    
  23 C23            0.3932    -6.0137     1.6174 C.ar    
  24 C24           -0.4224    -5.9423     0.4946 C.ar    
  25 C25           -1.5933    -6.6436     0.4347 C.ar    
  26 C26           -1.9793    -7.4412     1.5085 C.ar    
  27 C27           -4.1304    -8.4646     0.8722 C.ar    
  28 C28           -4.7405    -9.7107     0.8135 C.ar    
  29 C29           -5.7921    -9.9233    -0.0560 C.ar    
  30 C30           -6.2382    -8.8949    -0.8692 C.ar    
  31 C31           -5.6312    -7.6515    -0.8122 C.ar    
  32 C32           -4.5830    -7.4330     0.0601 C.ar    
  33 F33           -7.2668    -9.1050    -1.7195 F       
  34 F34            3.8723    -5.1103     0.7066 F       
  35 F35            2.9317    -7.1679     1.0243 F       
  36 F36            2.1439    -5.7936    -0.6219 F       
  37 H37            3.8325    -0.5823     0.0387 H       
  38 H38            2.6208     0.5271     0.7236 H       
  39 H39            0.9841    -0.2024    -0.9904 H       
  40 H40            2.1959    -1.3119    -1.6752 H       
  41 H41            4.7763     1.9439    -0.0459 H       
  42 H42            4.5799     2.6547    -1.5555 H       
  43 H43            2.6819    -3.5300    -0.4380 H       
  44 H44           -0.4229    -3.9157     3.5977 H       
  45 H45           -1.7653    -1.9963     4.2950 H       
  46 H46           -1.6341     0.1289     3.0660 H       
  47 H47           -0.1553     0.3557     1.1209 H       
  48 H48            1.6446    -4.9049     3.6552 H       
  49 H49           -1.4640    -8.6993     4.5593 H       
  50 H50            0.6792    -6.8365     3.5545 H       
  51 H51           -0.1272    -5.3247    -0.3407 H       
  52 H52           -2.2184    -6.5792    -0.4437 H       
  53 H53           -4.3926   -10.5130     1.4472 H       
  54 H54           -6.2666   -10.8923    -0.1022 H       
  55 H55           -5.9804    -6.8509    -1.4474 H       
  56 H56           -4.1130    -6.4618     0.1077 H       
@<TRIPOS>BOND
   1    1    2 1
   2    1    4 2
   3    1    5 am
   4    2    3 1
   5    2   37 1
   6    2   38 1
   7    3    6 1
   8    3   39 1
   9    3   40 1
  10    5   41 1
  11    5   42 1
  12    6    7 1
  13    6   14 1
  14    7    8 2
  15    7   43 1
  16    8    9 1
  17    8   15 1
  18    9   10 ar
  19    9   14 ar
  20   10   11 ar
  21   10   44 1
  22   11   12 ar
  23   11   45 1
  24   12   13 ar
  25   12   46 1
  26   13   14 ar
  27   13   47 1
  28   15   16 1
  29   15   17 1
  30   15   23 1
  31   16   34 1
  32   16   35 1
  33   16   36 1
  34   17   48 1
  35   18   19 1
  36   18   26 1
  37   18   27 1
  38   19   20 2
  39   20   21 1
  40   20   49 1
  41   21   22 ar
  42   21   26 ar
  43   22   23 ar
  44   22   50 1
  45   23   24 ar
  46   24   25 ar
  47   24   51 1
  48   25   26 ar
  49   25   52 1
  50   27   28 ar
  51   27   32 ar
  52   28   29 ar
  53   28   53 1
  54   29   30 ar
  55   29   54 1
  56   30   31 ar
  57   30   33 1
  58   31   32 ar
  59   31   55 1
  60   32   56 1

#	End of record

