#	Name: ASD01813123
#	Creating user name:	WinNT
#	Creation time:	15. 06. 2019 19:29

#	Modifying user name:	WinNT
#	Modification time:	15. 06. 2019 19:29

#	Program:	/corina/corina34_cracker 3.40 0067  02.08.2006

@<TRIPOS>MOLECULE
ASD01813123
  48   51    0    0    0
SMALL
NO_CHARGES


@<TRIPOS>ATOM
   1 C1            -0.0164     1.3594     0.0095 C.2     
   2 C2             0.0021    -0.0041     0.0020 C.2     
   3 C3             1.2412    -0.6747    -0.0135 C.2     
   4 C4             2.4355     0.0773    -0.0208 C.2     
   5 N5             2.3900     1.4248    -0.0127 N.am    
   6 C6             3.5554     2.1321    -0.0196 C.2     
   7 C7             3.5451     3.4844    -0.0114 C.2     
   8 C8             2.3290     4.1801     0.0039 C.2     
   9 C9             1.1563     3.4824     0.0105 C.2     
  10 C10            1.1882     2.0784     0.0019 C.2     
  11 C11            1.2878    -2.0921    -0.0211 C.2     
  12 O12            0.2476    -2.7392    -0.0142 O.co2   
  13 O13            2.3683    -2.6694    -0.0345 O.co2   
  14 O14            3.5125    -0.4938    -0.0342 O.2     
  15 C15           -1.3319     2.0945     0.0197 C.3     
  16 N16           -1.8248     2.2354    -1.3569 N.3     
  17 C17           -3.2069     2.7315    -1.3728 C.3     
  18 C18           -3.7351     2.7276    -2.8092 C.3     
  19 C19           -2.8432     3.6186    -3.6782 C.3     
  20 C20           -1.4010     3.1093    -3.6057 C.3     
  21 C21           -0.9405     3.1021    -2.1463 C.3     
  22 C22           -3.3228     3.5714    -5.1061 C.ar    
  23 N23           -4.1603     2.6246    -5.4813 N.ar    
  24 C24           -4.6063     2.5442    -6.7198 C.ar    
  25 C25           -4.2068     3.4584    -7.6758 C.ar    
  26 C26           -3.3266     4.4687    -7.3185 C.ar    
  27 C27           -2.8841     4.5246    -6.0059 C.ar    
  28 C28           -2.9011     5.0040    -3.1840 C.1     
  29 N29           -2.9458     6.0731    -2.8026 N.1     
  30 H30           -0.9219    -0.5632     0.0082 H       
  31 H31            4.4985     1.6059    -0.0314 H       
  32 H32            4.4773     4.0298    -0.0163 H       
  33 H33            2.3199     5.2601     0.0109 H       
  34 H34            0.2116     4.0056     0.0224 H       
  35 H35           -2.0570     1.5336     0.6096 H       
  36 H36           -1.1927     3.0824     0.4588 H       
  37 H37           -3.8313     2.0867    -0.7545 H       
  38 H38           -3.2326     3.7476    -0.9792 H       
  39 H39           -3.7226     1.7097    -3.1988 H       
  40 H40           -4.7555     3.1106    -2.8227 H       
  41 H41           -1.3518     2.0974    -4.0079 H       
  42 H42           -0.7539     3.7649    -4.1883 H       
  43 H43           -0.9768     4.1165    -1.7490 H       
  44 H44            0.0812     2.7265    -2.0898 H       
  45 H45           -5.2916     1.7544    -6.9900 H       
  46 H46           -4.5750     3.3869    -8.6885 H       
  47 H47           -2.9968     5.1970    -8.0446 H       
  48 H48           -2.1985     5.2980    -5.6924 H       
@<TRIPOS>BOND
   1    1    2 1
   2    1   10 2
   3    1   15 1
   4    2    3 2
   5    2   30 1
   6    3    4 1
   7    3   11 1
   8    4    5 am
   9    4   14 2
  10    5    6 1
  11    5   10 1
  12    6    7 2
  13    6   31 1
  14    7    8 1
  15    7   32 1
  16    8    9 2
  17    8   33 1
  18    9   10 1
  19    9   34 1
  20   11   12 ar
  21   11   13 ar
  22   15   16 1
  23   15   35 1
  24   15   36 1
  25   16   17 1
  26   16   21 1
  27   17   18 1
  28   17   37 1
  29   17   38 1
  30   18   19 1
  31   18   39 1
  32   18   40 1
  33   19   20 1
  34   19   22 1
  35   19   28 1
  36   20   21 1
  37   20   41 1
  38   20   42 1
  39   21   43 1
  40   21   44 1
  41   22   23 ar
  42   22   27 ar
  43   23   24 ar
  44   24   25 ar
  45   24   45 1
  46   25   26 ar
  47   25   46 1
  48   26   27 ar
  49   26   47 1
  50   27   48 1
  51   28   29 3

#	End of record

