#	Name: ASD01820196
#	Creating user name:	WinNT
#	Creation time:	15. 06. 2019 19:36

#	Modifying user name:	WinNT
#	Modification time:	15. 06. 2019 19:36

#	Program:	/corina/corina34_cracker 3.40 0067  02.08.2006

@<TRIPOS>MOLECULE
ASD01820196
 108  113    0    0    0
SMALL
NO_CHARGES


@<TRIPOS>ATOM
   1 N1             5.4428     1.8456     0.0576 N.am    
   2 C2             5.4052     0.5097     0.2220 C.2     
   3 C3             6.3293     2.4058    -0.9654 C.3     
   4 C4             5.5744     2.5113    -2.2921 C.3     
   5 C5             6.5003     3.0963    -3.3605 C.3     
   6 N6             6.0740     2.6296    -4.6866 N.4     
   7 C7             6.8387     3.3356    -5.7233 C.3     
   8 C8             6.3947     2.8496    -7.1044 C.3     
   9 C9             7.1911     3.5849    -8.1842 C.3     
  10 C10            6.7471     3.0989    -9.5653 C.3     
  11 C11            7.5436     3.8342   -10.6451 C.3     
  12 C12            7.0996     3.3482   -12.0262 C.3     
  13 N13            7.8643     4.0541   -13.0629 N.4     
  14 C14            7.4380     3.5875   -14.3890 C.3     
  15 C15            8.4975     3.9634   -15.4268 C.3     
  16 N16            8.9061     4.2355   -17.8228 N.am    
  17 O17            6.1012    -0.2050    -0.4736 O.2     
  18 C18            7.8916     3.8756   -16.8290 C.3     
  19 O19            8.2912     6.3634   -17.7014 O.2     
  20 C20            7.6227     5.4988   -12.9512 C.3     
  21 C21            9.2969     3.7821   -12.8853 C.3     
  22 C22            6.3156     1.1849    -4.7983 C.3     
  23 C23            4.6414     2.9016    -4.8642 C.3     
  24 C24            4.5277    -0.0898     1.2381 C.ar    
  25 C25            3.7293     0.7634     2.0336 C.ar    
  26 C26            3.7935     2.1614     1.8344 C.ar    
  27 C27            4.6917     2.6855     0.7950 C.2     
  28 O28            4.7632     3.8848     0.6061 O.2     
  29 C29            4.4581    -1.4599     1.4414 C.ar    
  30 C30            3.6129    -1.9792     2.4153 C.ar    
  31 C31            2.8348    -1.1703     3.1926 C.ar    
  32 C32            2.8752     0.2242     3.0177 C.ar    
  33 C33            2.0940     1.0990     3.7930 C.ar    
  34 C34            2.1680     2.4465     3.5863 C.ar    
  35 C35            3.0060     2.9901     2.6195 C.ar    
  36 C36            9.6856     3.2640   -18.3346 C.2     
  37 C37           10.7145     3.5861   -19.3344 C.ar    
  38 C38           10.8656     4.9307   -19.7434 C.ar    
  39 C39           10.0303     5.9253   -19.1857 C.ar    
  40 C40            9.0208     5.5246   -18.1946 C.2     
  41 C41           11.5384     2.6174   -19.8878 C.ar    
  42 C42           12.4967     2.9714   -20.8305 C.ar    
  43 C43           12.6566     4.2648   -21.2372 C.ar    
  44 C44           11.8421     5.2771   -20.7000 C.ar    
  45 C45           11.9676     6.6231   -21.0865 C.ar    
  46 C46           11.1529     7.5707   -20.5367 C.ar    
  47 C47           10.1865     7.2418   -19.5931 C.ar    
  48 O48            9.5381     2.1141   -17.9675 O.2     
  49 C49            5.1096     1.1198    -2.7264 C.3     
  50 C50            4.3587     3.4233    -2.1159 C.3     
  51 C51            8.9803     5.3920   -15.1684 C.3     
  52 C52            9.6801     2.9984   -15.3209 C.3     
  53 H53            6.6605     3.3971    -0.6560 H       
  54 H54            7.1954     1.7560    -1.0909 H       
  55 H55            6.4530     4.1847    -3.3258 H       
  56 H56            7.5234     2.7708    -3.1724 H       
  57 H57            6.6594     4.4076    -5.6404 H       
  58 H58            7.9017     3.1337    -5.5915 H       
  59 H59            6.5740     1.7776    -7.1873 H       
  60 H60            5.3317     3.0514    -7.2362 H       
  61 H61            7.0119     4.6568    -8.1013 H       
  62 H62            8.2541     3.3830    -8.0524 H       
  63 H63            6.9264     2.0269    -9.6482 H       
  64 H64            5.6841     3.3007    -9.6971 H       
  65 H65            7.3643     4.9061   -10.5622 H       
  66 H66            8.6066     3.6323   -10.5133 H       
  67 H67            7.2789     2.2762   -12.1091 H       
  68 H68            6.0366     3.5500   -12.1580 H       
  69 H69            7.3152     2.5046   -14.3710 H       
  70 H70            6.4897     4.0564   -14.6517 H       
  71 H71            7.5477     2.8578   -17.0131 H       
  72 H72            7.0491     4.5630   -16.9045 H       
  73 H73            8.0378     5.8651   -12.0123 H       
  74 H74            8.1010     6.0128   -13.7850 H       
  75 H75            6.5499     5.6906   -12.9734 H       
  76 H76            9.4767     2.7105   -12.9716 H       
  77 H77            9.8646     4.3087   -13.6525 H       
  78 H78            9.6125     4.1252   -11.9000 H       
  79 H79            5.4587     0.6414    -4.4004 H       
  80 H80            6.4591     0.9205    -5.8460 H       
  81 H81            7.2084     0.9210    -4.2314 H       
  82 H82            4.3686     3.7945    -4.3016 H       
  83 H83            4.4300     3.0599    -5.9217 H       
  84 H84            4.0625     2.0524    -4.5011 H       
  85 H85            5.0616    -2.1250     0.8415 H       
  86 H86            3.5705    -3.0486     2.5604 H       
  87 H87            2.1875    -1.6018     3.9416 H       
  88 H88            1.4346     0.7048     4.5521 H       
  89 H89            1.5616     3.1061     4.1893 H       
  90 H90            3.0432     4.0603     2.4789 H       
  91 H91           11.4355     1.5857   -19.5853 H       
  92 H92           13.1304     2.2046   -21.2512 H       
  93 H93           13.4095     4.5106   -21.9714 H       
  94 H94           12.7090     6.9076   -21.8184 H       
  95 H95           11.2611     8.6006   -20.8431 H       
  96 H96            9.5565     8.0133   -19.1756 H       
  97 H97            4.5326     0.6622    -1.9228 H       
  98 H98            4.4870     1.2063    -3.6169 H       
  99 H99            5.9779     0.4997    -2.9489 H       
 100 H100           4.6938     4.4387    -1.9042 H       
 101 H101           3.7661     3.4196    -3.0308 H       
 102 H102           3.7500     3.0614    -1.2873 H       
 103 H103           9.3042     5.4842   -14.1317 H       
 104 H104           9.8152     5.6189   -15.8314 H       
 105 H105           8.1655     6.0908   -15.3580 H       
 106 H106           9.3243     1.9741   -15.4319 H       
 107 H107          10.4013     3.2198   -16.1077 H       
 108 H108          10.1572     3.1138   -14.3477 H       
@<TRIPOS>BOND
   1    1    2 am
   2    1    3 1
   3    1   27 am
   4    2   17 2
   5    2   24 1
   6    3    4 1
   7    3   53 1
   8    3   54 1
   9    4    5 1
  10    4   49 1
  11    4   50 1
  12    5    6 1
  13    5   55 1
  14    5   56 1
  15    6    7 1
  16    6   22 1
  17    6   23 1
  18    7    8 1
  19    7   57 1
  20    7   58 1
  21    8    9 1
  22    8   59 1
  23    8   60 1
  24    9   10 1
  25    9   61 1
  26    9   62 1
  27   10   11 1
  28   10   63 1
  29   10   64 1
  30   11   12 1
  31   11   65 1
  32   11   66 1
  33   12   13 1
  34   12   67 1
  35   12   68 1
  36   13   14 1
  37   13   20 1
  38   13   21 1
  39   14   15 1
  40   14   69 1
  41   14   70 1
  42   15   18 1
  43   15   51 1
  44   15   52 1
  45   16   36 am
  46   16   18 1
  47   16   40 am
  48   18   71 1
  49   18   72 1
  50   19   40 2
  51   20   73 1
  52   20   74 1
  53   20   75 1
  54   21   76 1
  55   21   77 1
  56   21   78 1
  57   22   79 1
  58   22   80 1
  59   22   81 1
  60   23   82 1
  61   23   83 1
  62   23   84 1
  63   24   25 ar
  64   24   29 ar
  65   25   26 ar
  66   25   32 ar
  67   26   27 1
  68   26   35 ar
  69   27   28 2
  70   29   30 ar
  71   29   85 1
  72   30   31 ar
  73   30   86 1
  74   31   32 ar
  75   31   87 1
  76   32   33 ar
  77   33   34 ar
  78   33   88 1
  79   34   35 ar
  80   34   89 1
  81   35   90 1
  82   36   37 1
  83   36   48 2
  84   37   38 ar
  85   37   41 ar
  86   38   39 ar
  87   38   44 ar
  88   39   40 1
  89   39   47 ar
  90   41   42 ar
  91   41   91 1
  92   42   43 ar
  93   42   92 1
  94   43   44 ar
  95   43   93 1
  96   44   45 ar
  97   45   46 ar
  98   45   94 1
  99   46   47 ar
 100   46   95 1
 101   47   96 1
 102   49   97 1
 103   49   98 1
 104   49   99 1
 105   50  100 1
 106   50  101 1
 107   50  102 1
 108   51  103 1
 109   51  104 1
 110   51  105 1
 111   52  106 1
 112   52  107 1
 113   52  108 1

#	End of record

