#	Name: ASD00431440
#	Creating user name:	WinNT
#	Creation time:	15. 06. 2019 18:35

#	Modifying user name:	WinNT
#	Modification time:	15. 06. 2019 18:35

#	Program:	/corina/corina34_cracker 3.40 0067  02.08.2006

@<TRIPOS>MOLECULE
ASD00431440
  31   32    0    0    0
SMALL
NO_CHARGES


@<TRIPOS>ATOM
   1 C1             3.8329     1.6633     3.4504 C.ar    
   2 C2             4.1819     0.3277     3.5114 C.ar    
   3 C3             4.2786    -0.4032     2.3346 C.ar    
   4 C4             4.0198     0.2386     1.1359 C.ar    
   5 C5             3.6742     1.5838     1.1502 C.ar    
   6 N6             3.5923     2.2469     2.2920 N.ar    
   7 O7             3.4186     2.2241    -0.0183 O.3     
   8 C8             1.8999     4.0583    -0.0971 C.ar    
   9 C9             3.1885     3.5636     0.0248 C.ar    
  10 C10            4.2446     4.4550     0.1925 C.ar    
  11 C11            3.9638     5.8096     0.2310 C.ar    
  12 C12            2.6474     6.2319     0.1021 C.ar    
  13 N13            1.6689     5.3567    -0.0562 N.ar    
  14 O14            2.3616     7.5585     0.1386 O.3     
  15 C15            0.9888     7.9305     0.0006 C.3     
  16 C16            0.7331     9.2303     0.7661 C.3     
  17 C17            0.6629     8.1380    -1.4798 C.3     
  18 Br18           4.5247    -0.4956     5.1789 Br      
  19 H19            3.7518     2.2355     4.3628 H       
  20 H20            4.5499    -1.4484     2.3543 H       
  21 H21            4.0861    -0.2994     0.2018 H       
  22 H22            1.0757     3.3735    -0.2320 H       
  23 H23            5.2591     4.0978     0.2905 H       
  24 H24            4.7587     6.5293     0.3601 H       
  25 H25            0.3559     7.1404     0.4047 H       
  26 H26            1.3660    10.0204     0.3621 H       
  27 H27           -0.3140     9.5140     0.6609 H       
  28 H28            0.9653     9.0825     1.8208 H       
  29 H29            1.2958     8.9281    -1.8839 H       
  30 H30            0.8451     7.2120    -2.0252 H       
  31 H31           -0.3842     8.4217    -1.5851 H       
@<TRIPOS>BOND
   1    1    2 ar
   2    1    6 ar
   3    1   19 1
   4    2    3 ar
   5    2   18 1
   6    3    4 ar
   7    3   20 1
   8    4    5 ar
   9    4   21 1
  10    5    6 ar
  11    5    7 1
  12    7    9 1
  13    8    9 ar
  14    8   13 ar
  15    8   22 1
  16    9   10 ar
  17   10   11 ar
  18   10   23 1
  19   11   12 ar
  20   11   24 1
  21   12   13 ar
  22   12   14 1
  23   14   15 1
  24   15   16 1
  25   15   17 1
  26   15   25 1
  27   16   26 1
  28   16   27 1
  29   16   28 1
  30   17   29 1
  31   17   30 1
  32   17   31 1

#	End of record

