#	Name: ASD01231348
#	Creating user name:	WinNT
#	Creation time:	15. 06. 2019 19:15

#	Modifying user name:	WinNT
#	Modification time:	15. 06. 2019 19:15

#	Program:	/corina/corina34_cracker 3.40 0067  02.08.2006

@<TRIPOS>MOLECULE
ASD01231348
  60   62    0    0    0
SMALL
NO_CHARGES


@<TRIPOS>ATOM
   1 C1            -1.6000     1.7632     0.9197 C.3     
   2 C2            -1.7327     0.2647     1.1987 C.3     
   3 C3            -3.1959    -0.0716     1.4931 C.3     
   4 S4            -1.1770    -0.6719    -0.2520 S.o2    
   5 O5            -2.0666    -0.4762    -1.3427 O.2     
   6 O6             0.2281    -0.5432    -0.4204 O.2     
   7 N7            -1.3938    -2.2579     0.1723 N.am    
   8 C8            -1.5148    -3.4686     2.3300 C.3     
   9 C9            -0.6001    -2.8412     1.2567 C.3     
  10 C10            0.2044    -4.0588     0.7542 C.3     
  11 C11            0.2184    -5.0306     1.9147 C.ar    
  12 C12            1.0312    -6.1250     2.1591 C.ar    
  13 C13            0.8576    -6.8778     3.3039 C.ar    
  14 C14           -0.1304    -6.5385     4.2095 C.ar    
  15 C15           -0.9419    -5.4476     3.9675 C.ar    
  16 C16           -0.7694    -4.6914     2.8201 C.ar    
  17 C17            1.7447    -8.0675     3.5660 C.3     
  18 C18            2.9588    -7.6274     4.3427 C.ar    
  19 C19            2.9345    -7.6330     5.7250 C.ar    
  20 C20            4.0480    -7.2293     6.4374 C.ar    
  21 C21            5.1863    -6.8205     5.7676 C.ar    
  22 C22            5.2110    -6.8158     4.3857 C.ar    
  23 C23            4.0986    -7.2237     3.6732 C.ar    
  24 C24            6.4516    -6.3697     3.6557 C.3     
  25 F25            7.2838    -7.4721     3.4336 F       
  26 F26            6.0919    -5.8022     2.4286 F       
  27 F27            7.1307    -5.4206     4.4272 F       
  28 C28            4.0212    -7.2344     7.9441 C.3     
  29 N29            4.4822    -8.5389     8.4377 N.3     
  30 C30            4.6960    -8.5065     9.8907 C.3     
  31 C31            3.5409    -9.6043     8.0678 C.3     
  32 H32           -1.9339     2.3260     1.7914 H       
  33 H33           -0.5575     2.0028     0.7100 H       
  34 H34           -2.2140     2.0283     0.0590 H       
  35 H35           -1.1186    -0.0004     2.0594 H       
  36 H36           -3.3036    -1.1495     1.6148 H       
  37 H37           -3.5068     0.4303     2.4093 H       
  38 H38           -3.8197     0.2646     0.6649 H       
  39 H39           -2.0463    -2.8007    -0.2973 H       
  40 H40           -1.6719    -2.7676     3.1498 H       
  41 H41           -2.4694    -3.7583     1.8909 H       
  42 H42            0.0610    -2.0957     1.6987 H       
  43 H43           -0.2878    -4.5073    -0.1087 H       
  44 H44            1.2211    -3.7608     0.4982 H       
  45 H45            1.8030    -6.3908     1.4520 H       
  46 H46           -0.2678    -7.1263     5.1051 H       
  47 H47           -1.7135    -5.1832     4.6754 H       
  48 H48            1.1944    -8.8110     4.1425 H       
  49 H49            2.0585    -8.5027     2.6172 H       
  50 H50            2.0453    -7.9523     6.2482 H       
  51 H51            6.0562    -6.5044     6.3243 H       
  52 H52            4.1191    -7.2236     2.5934 H       
  53 H53            4.6775    -6.4504     8.3219 H       
  54 H54            3.0033    -7.0541     8.2900 H       
  55 H55            3.7605    -8.2546    10.3901 H       
  56 H56            5.0370    -9.4847    10.2297 H       
  57 H57            5.4493    -7.7560    10.1304 H       
  58 H58            3.4544    -9.6520     6.9823 H       
  59 H59            3.9063   -10.5593     8.4455 H       
  60 H60            2.5635    -9.3922     8.5012 H       
@<TRIPOS>BOND
   1    1    2 1
   2    1   32 1
   3    1   33 1
   4    1   34 1
   5    2    3 1
   6    2    4 1
   7    2   35 1
   8    3   36 1
   9    3   37 1
  10    3   38 1
  11    4    5 2
  12    4    6 2
  13    4    7 am
  14    7    9 1
  15    7   39 1
  16    8    9 1
  17    8   16 1
  18    8   40 1
  19    8   41 1
  20    9   10 1
  21    9   42 1
  22   10   11 1
  23   10   43 1
  24   10   44 1
  25   11   12 ar
  26   11   16 ar
  27   12   13 ar
  28   12   45 1
  29   13   14 ar
  30   13   17 1
  31   14   15 ar
  32   14   46 1
  33   15   16 ar
  34   15   47 1
  35   17   18 1
  36   17   48 1
  37   17   49 1
  38   18   19 ar
  39   18   23 ar
  40   19   20 ar
  41   19   50 1
  42   20   21 ar
  43   20   28 1
  44   21   22 ar
  45   21   51 1
  46   22   23 ar
  47   22   24 1
  48   23   52 1
  49   24   25 1
  50   24   26 1
  51   24   27 1
  52   28   29 1
  53   28   53 1
  54   28   54 1
  55   29   30 1
  56   29   31 1
  57   30   55 1
  58   30   56 1
  59   30   57 1
  60   31   58 1
  61   31   59 1
  62   31   60 1

#	End of record

