#	Name: ASD01708028
#	Creating user name:	WinNT
#	Creation time:	15. 06. 2019 19:22

#	Modifying user name:	WinNT
#	Modification time:	15. 06. 2019 19:22

#	Program:	/corina/corina34_cracker 3.40 0067  02.08.2006

@<TRIPOS>MOLECULE
ASD01708028
  60   64    0    0    0
SMALL
NO_CHARGES


@<TRIPOS>ATOM
   1 C1             0.0047     1.4371    -0.0378 C.ar    
   2 C2             1.1417     1.9821     0.5776 C.ar    
   3 C3             0.0824     0.1746    -0.6590 C.ar    
   4 C4             1.2845    -0.5215    -0.6576 C.ar    
   5 C5             2.4004     0.0353    -0.0425 C.ar    
   6 C6             2.3145     1.2932     0.5734 C.ar    
   7 C7             3.6812    -0.7002    -0.0373 C.2     
   8 N8             3.6858    -2.0447     0.0571 N.am    
   9 O9             4.7313    -0.0929    -0.1183 O.2     
  10 C10            4.9335    -2.8168    -0.0654 C.3     
  11 C11            2.4492    -2.7973     0.2921 C.3     
  12 C12            2.6899    -3.8568     1.3389 C.ar    
  13 C13            3.9547    -4.1847     1.7771 C.ar    
  14 C14            5.1928    -3.5045     1.2740 C.3     
  15 C15            1.5800    -4.5097     1.8619 C.ar    
  16 C16            1.7258    -5.4937     2.8154 C.ar    
  17 C17            3.0054    -5.8385     3.2596 C.ar    
  18 C18            4.1148    -5.1779     2.7342 C.ar    
  19 Cl19           5.7078    -5.6003     3.2799 Cl      
  20 Cl20           0.3299    -6.2991     3.4607 Cl      
  21 C21            3.1806    -6.8941     4.2776 C.2     
  22 N22            3.1833    -6.5741     5.5868 N.am    
  23 O23            3.3225    -8.0518     3.9345 O.2     
  24 C24            3.3572    -7.6212     6.5965 C.3     
  25 C25            2.0227    -8.2515     6.9015 C.2     
  26 O26            1.9386    -9.2415     7.8039 O.3     
  27 O27            1.0284    -7.8655     6.3337 O.2     
  28 C28            3.9351    -7.0076     7.8733 C.3     
  29 N29            5.1732    -6.2923     7.5544 N.am    
  30 C30           -1.3263     1.8901    -0.1948 C.2     
  31 N31           -1.9982     0.9920    -0.8559 N.2     
  32 N32           -1.1658    -0.0907    -1.1646 N.pl3   
  33 C33            5.8616    -5.6683     8.5306 C.2     
  34 C34            7.1004    -4.9526     8.2115 C.2     
  35 S35            7.8163    -4.8162     6.6113 S.3     
  36 C36            7.8808    -4.2797     9.1089 C.2     
  37 C37            8.9874    -3.6973     8.5378 C.2     
  38 C38            9.1097    -3.8837     7.2183 C.2     
  39 O39            5.4547    -5.6989     9.6772 O.2     
  40 H40            1.0858     2.9495     1.0546 H       
  41 H41            1.3520    -1.4898    -1.1313 H       
  42 H42            3.1867     1.7177     1.0482 H       
  43 H43            4.8282    -3.5658    -0.8503 H       
  44 H44            5.7601    -2.1470    -0.3023 H       
  45 H45            1.6706    -2.1169     0.6371 H       
  46 H46            2.1307    -3.2708    -0.6366 H       
  47 H47            5.9811    -4.2459     1.1432 H       
  48 H48            5.5167    -2.7633     2.0047 H       
  49 H49            0.5919    -4.2425     1.5173 H       
  50 H50            3.0701    -5.6504     5.8605 H       
  51 H51            4.0400    -8.3816     6.2175 H       
  52 H52            1.0613    -9.6145     7.9660 H       
  53 H53            3.2133    -6.3116     8.3009 H       
  54 H54            4.1474    -7.7985     8.5927 H       
  55 H55            5.4975    -6.2679     6.6405 H       
  56 H56           -1.7200     2.8259     0.1733 H       
  57 H57           -1.4254    -0.8882    -1.6519 H       
  58 H58            7.6512    -4.2121    10.1620 H       
  59 H59            9.7047    -3.1294     9.1117 H       
  60 H60            9.9185    -3.4946     6.6175 H       
@<TRIPOS>BOND
   1    1    2 ar
   2    1    3 ar
   3    1   30 1
   4    2    6 ar
   5    2   40 1
   6    3    4 ar
   7    3   32 1
   8    4    5 ar
   9    4   41 1
  10    5    6 ar
  11    5    7 1
  12    6   42 1
  13    7    8 am
  14    7    9 2
  15    8   10 1
  16    8   11 1
  17   10   14 1
  18   10   43 1
  19   10   44 1
  20   11   12 1
  21   11   45 1
  22   11   46 1
  23   12   13 ar
  24   12   15 ar
  25   13   14 1
  26   13   18 ar
  27   14   47 1
  28   14   48 1
  29   15   16 ar
  30   15   49 1
  31   16   17 ar
  32   16   20 1
  33   17   18 ar
  34   17   21 1
  35   18   19 1
  36   21   22 am
  37   21   23 2
  38   22   24 1
  39   22   50 1
  40   24   25 1
  41   24   28 1
  42   24   51 1
  43   25   26 1
  44   25   27 2
  45   26   52 1
  46   28   29 1
  47   28   53 1
  48   28   54 1
  49   29   33 am
  50   29   55 1
  51   30   31 2
  52   30   56 1
  53   31   32 1
  54   32   57 1
  55   33   34 1
  56   33   39 2
  57   34   35 1
  58   34   36 2
  59   35   38 1
  60   36   37 1
  61   36   58 1
  62   37   38 2
  63   37   59 1
  64   38   60 1

#	End of record

