#	Name: ASD05740044
#	Creating user name:	WinNT
#	Creation time:	15. 06. 2019 21:02

#	Modifying user name:	WinNT
#	Modification time:	15. 06. 2019 21:02

#	Program:	/corina/corina34_cracker 3.40 0067  02.08.2006

@<TRIPOS>MOLECULE
ASD05740044
  52   53    0    0    0
SMALL
NO_CHARGES


@<TRIPOS>ATOM
   1 C1            -0.0184     1.5028     0.0103 C.3     
   2 C2            -0.1160    -4.2854     2.2004 C.ar    
   3 C3            -0.0118    -4.9174     0.9625 C.ar    
   4 C4            -0.1388    -2.9234     2.2814 C.ar    
   5 C5            -0.0568    -2.1558     1.1138 C.ar    
   6 C6             0.0486    -2.7882    -0.1389 C.ar    
   7 C7             0.0703    -4.1733    -0.2029 C.ar    
   8 C8            -0.0799    -0.6927     1.1702 C.2     
   9 C9             0.0021    -0.0041     0.0020 C.2     
  10 C10            0.1059    -0.7029    -1.2182 C.2     
  11 O11            0.1261    -2.0442    -1.2630 O.3     
  12 C12            1.3954     2.0244    -0.0004 C.2     
  13 N13            2.0974     2.3949    -1.0919 N.pl3   
  14 O14            0.1787    -0.0733    -2.2583 O.2     
  15 O15            0.0100    -6.2731     0.8986 O.3     
  16 C16           -0.1922     0.0295     2.4881 C.3     
  17 C17            2.1840     2.2098     1.0827 C.2     
  18 C18            3.4167     2.7135     0.6368 C.2     
  19 N19            3.3644     2.8180    -0.6702 N.2     
  20 N20            4.5121     3.0406     1.4448 N.am    
  21 S21            5.9010     3.6264     0.7592 S.o2    
  22 O22            6.7812     3.8167     1.8584 O.2     
  23 O23            6.2044     2.6940    -0.2693 O.2     
  24 C24            5.4162     5.2232     0.0481 C.3     
  25 C25            6.6286     5.8719    -0.6229 C.3     
  26 C26           -0.0777    -6.9825     2.1360 C.3     
  27 H27           -0.5455     1.8639    -0.8728 H       
  28 H28           -0.5286     1.8543     0.9071 H       
  29 H29           -0.1838    -4.8776     3.1010 H       
  30 H30           -0.2201    -2.4393     3.2434 H       
  31 H31            0.1509    -4.6703    -1.1584 H       
  32 H32            1.7802     2.3719    -2.0082 H       
  33 H33           -0.2461    -0.6983     3.2977 H       
  34 H34            0.6814     0.6659     2.6292 H       
  35 H35           -1.0930     0.6432     2.4906 H       
  36 H36            1.9135     2.0069     2.1084 H       
  37 H37            4.4575     2.9242     2.4062 H       
  38 H38            4.6312     5.0680    -0.6920 H       
  39 H39            5.0462     5.8758     0.8388 H       
  40 H40            6.3373     6.8314    -1.0502 H       
  41 H41            7.4137     6.0271     0.1172 H       
  42 H42            6.9987     5.2193    -1.4136 H       
  43 H43           -0.0494    -8.0549     1.9428 H       
  44 H44            0.7620    -6.7059     2.7736 H       
  45 H45           -1.0125    -6.7278     2.6353 H       
  46 C46           12.9408    14.5007    10.1660 C.3     
  47 N47           12.9607    13.0359    10.1580 N.2     
  48 C48           13.5014    12.4233     9.2120 C.1     
  49 O49           14.0240    11.8314     8.2977 O.2     
  50 H50           13.9634    14.8780    10.1583 H       
  51 H51           12.4137    14.8618     9.2830 H       
  52 H52           12.4307    14.8522    11.0628 H       
@<TRIPOS>BOND
   1    1    9 1
   2    1   12 1
   3    1   27 1
   4    1   28 1
   5    2    3 ar
   6    2    4 ar
   7    2   29 1
   8    3   15 1
   9    3    7 ar
  10    4    5 ar
  11    4   30 1
  12    5    6 ar
  13    5    8 1
  14    6    7 ar
  15    6   11 1
  16    7   31 1
  17    8    9 2
  18    8   16 1
  19    9   10 1
  20   10   11 1
  21   10   14 2
  22   12   13 1
  23   12   17 2
  24   13   19 1
  25   13   32 1
  26   15   26 1
  27   16   33 1
  28   16   34 1
  29   16   35 1
  30   17   18 1
  31   17   36 1
  32   18   19 2
  33   18   20 1
  34   20   21 am
  35   20   37 1
  36   21   22 2
  37   21   23 2
  38   21   24 1
  39   24   25 1
  40   24   38 1
  41   24   39 1
  42   25   40 1
  43   25   41 1
  44   25   42 1
  45   26   43 1
  46   26   44 1
  47   26   45 1
  48   46   47 1
  49   46   50 1
  50   46   51 1
  51   46   52 1
  52   47   48 2
  53   48   49 2

#	End of record

