#	Name: ASD01940612
#	Creating user name:	WinNT
#	Creation time:	15. 06. 2019 20:12

#	Modifying user name:	WinNT
#	Modification time:	15. 06. 2019 20:12

#	Program:	/corina/corina34_cracker 3.40 0067  02.08.2006

@<TRIPOS>MOLECULE
ASD01940612
  46   48    0    0    0
SMALL
NO_CHARGES


@<TRIPOS>ATOM
   1 C1            -0.5125     1.7432    -0.0642 C.ar    
   2 C2            -0.6701     0.3791     0.2276 C.ar    
   3 C3             0.2694    -0.2700     1.0097 C.ar    
   4 C4             1.3637     0.4216     1.5054 C.ar    
   5 C5             1.5298     1.7668     1.2245 C.ar    
   6 C6             0.6002     2.4362     0.4423 C.ar    
   7 N7             0.7684     3.7861     0.1607 N.pl3   
   8 C8             1.5431     4.5861     1.0076 C.ar    
   9 C9             1.7471     4.2077     2.3279 C.ar    
  10 C10            2.5127     4.9991     3.1618 C.ar    
  11 C11            3.0763     6.1686     2.6839 C.ar    
  12 C12            2.8759     6.5499     1.3694 C.ar    
  13 C13            2.1153     5.7594     0.5275 C.ar    
  14 F14            1.9237     6.1289    -0.7578 F       
  15 I15            4.2354     7.3653     3.9541 I       
  16 F16            2.2742    -0.2216     2.2686 F       
  17 C17           -1.5016     2.4406    -0.8990 C.2     
  18 O18           -2.4633     2.9773    -0.3824 O.2     
  19 N19           -1.3428     2.4852    -2.2366 N.am    
  20 O20           -1.7401    -0.3007    -0.2550 O.3     
  21 C21           -1.8021    -1.6395    -0.0258 C.ar    
  22 C22           -2.2472    -2.1140     1.2004 C.ar    
  23 C23           -2.3094    -3.4818     1.4314 C.ar    
  24 C24           -1.9256    -4.3713     0.4335 C.ar    
  25 C25           -1.4830    -3.8935    -0.7863 C.ar    
  26 C26           -1.4261    -2.5316    -1.0191 C.ar    
  27 N27           -2.7573    -3.9647     2.6669 N.am    
  28 S28           -2.9868    -2.9194     3.9306 S.o2    
  29 N29           -4.2135    -1.8931     3.5012 N.am    
  30 O30           -3.4766    -3.6994     5.0127 O.2     
  31 O31           -1.8107    -2.1263     4.0140 O.2     
  32 F32           -1.9849    -5.7025     0.6562 F       
  33 F33           -2.6187    -1.2468     2.1674 F       
  34 H34            0.1493    -1.3194     1.2349 H       
  35 H35            2.3858     2.2967     1.6155 H       
  36 H36            0.3489     4.1741    -0.6231 H       
  37 H37            1.3071     3.2953     2.7026 H       
  38 H38            2.6713     4.7046     4.1887 H       
  39 H39            3.3169     7.4636     0.9993 H       
  40 H40           -0.5760     2.0572    -2.6486 H       
  41 H41           -1.9954     2.9453    -2.7874 H       
  42 H42           -1.1853    -4.5854    -1.5602 H       
  43 H43           -1.0845    -2.1618    -1.9746 H       
  44 H44           -2.9332    -4.9116     2.7827 H       
  45 H45           -4.7912    -1.5158     4.1829 H       
  46 H46           -4.3542    -1.6692     2.5679 H       
@<TRIPOS>BOND
   1    1    2 ar
   2    1    6 ar
   3    1   17 1
   4    2    3 ar
   5    2   20 1
   6    3    4 ar
   7    3   34 1
   8    4    5 ar
   9    4   16 1
  10    5    6 ar
  11    5   35 1
  12    6    7 1
  13    7    8 1
  14    7   36 1
  15    8    9 ar
  16    8   13 ar
  17    9   10 ar
  18    9   37 1
  19   10   11 ar
  20   10   38 1
  21   11   12 ar
  22   11   15 1
  23   12   13 ar
  24   12   39 1
  25   13   14 1
  26   17   18 2
  27   17   19 am
  28   19   40 1
  29   19   41 1
  30   20   21 1
  31   21   22 ar
  32   21   26 ar
  33   22   23 ar
  34   22   33 1
  35   23   24 ar
  36   23   27 1
  37   24   25 ar
  38   24   32 1
  39   25   26 ar
  40   25   42 1
  41   26   43 1
  42   27   28 am
  43   27   44 1
  44   28   29 am
  45   28   30 2
  46   28   31 2
  47   29   45 1
  48   29   46 1

#	End of record

