#	Name: ASD01814678
#	Creating user name:	WinNT
#	Creation time:	15. 06. 2019 19:32

#	Modifying user name:	WinNT
#	Modification time:	15. 06. 2019 19:32

#	Program:	/corina/corina34_cracker 3.40 0067  02.08.2006

@<TRIPOS>MOLECULE
ASD01814678
  51   54    0    0    0
SMALL
NO_CHARGES


@<TRIPOS>ATOM
   1 N1             0.0196     1.3268    -0.5510 N.2     
   2 C2             0.0436     0.0258    -0.7203 C.2     
   3 C3             1.2624    -0.6382    -0.9277 C.2     
   4 C4             2.4148     0.0762    -0.9516 C.2     
   5 N5             2.3614     1.4292    -0.7727 N.pl3   
   6 C6             1.1517     2.0427    -0.5727 C.2     
   7 N7             3.3487     2.4196    -0.7440 N.2     
   8 C8             2.7752     3.5877    -0.5362 C.2     
   9 C9             1.4077     3.4006    -0.4242 C.2     
  10 C10            3.0769     5.0577    -0.3776 C.3     
  11 N11            1.8048     5.7537    -0.1610 N.am    
  12 C12            0.7499     4.7356    -0.1866 C.3     
  13 C13            1.6370     7.0778     0.0261 C.2     
  14 C14            2.8128     7.9629     0.1314 C.ar    
  15 C15            2.8843     8.9217     1.1514 C.ar    
  16 C16            3.8636     7.8463    -0.7813 C.ar    
  17 C17            4.9591     8.6762    -0.6776 C.ar    
  18 C18            5.0234     9.6262     0.3283 C.ar    
  19 C19            3.9941     9.7482     1.2408 C.ar    
  20 O20            0.5166     7.5430     0.1082 O.2     
  21 O21            1.8721     9.0408     2.0467 O.3     
  22 C22            2.0150    10.0400     3.0583 C.3     
  23 C23            0.7846    10.0247     3.9676 C.3     
  24 C24            0.9918    11.0067     5.1225 C.3     
  25 C25           -0.4495    10.4371     3.1627 C.3     
  26 C26           -1.2429    -0.7585    -0.6913 C.3     
  27 Cl27           1.2946    -2.3594    -1.1511 Cl      
  28 C28            3.7365    -0.6135    -1.1722 C.3     
  29 H29            3.7319     5.2099     0.4803 H       
  30 H30            3.5559     5.4360    -1.2807 H       
  31 H31            0.0481     4.9503    -0.9926 H       
  32 H32            0.2248     4.7240     0.7685 H       
  33 H33            3.8179     7.1067    -1.5670 H       
  34 H34            5.7713     8.5850    -1.3836 H       
  35 H35            5.8859    10.2720     0.4023 H       
  36 H36            4.0533    10.4887     2.0248 H       
  37 H37            2.9067     9.8330     3.6500 H       
  38 H38            2.1088    11.0199     2.5903 H       
  39 H39            0.6397     9.0206     4.3660 H       
  40 H40            1.1367    12.0108     4.7241 H       
  41 H41            0.1152    10.9958     5.7703 H       
  42 H42            1.8710    10.7129     5.6959 H       
  43 H43           -0.5971     9.7376     2.3399 H       
  44 H44           -1.3260    10.4263     3.8105 H       
  45 H45           -0.3046    11.4413     2.7643 H       
  46 H46           -2.0784    -0.0798    -0.5202 H       
  47 H47           -1.3788    -1.2689    -1.6448 H       
  48 H48           -1.2019    -1.4942     0.1119 H       
  49 H49            3.5719    -1.6842    -1.2927 H       
  50 H50            4.2088    -0.2151    -2.0701 H       
  51 H51            4.3846    -0.4399    -0.3132 H       
@<TRIPOS>BOND
   1    1    2 2
   2    1    6 1
   3    2    3 1
   4    2   26 1
   5    3    4 2
   6    3   27 1
   7    4    5 1
   8    4   28 1
   9    5    7 1
  10    5    6 1
  11    6    9 2
  12    7    8 2
  13    8   10 1
  14    8    9 1
  15    9   12 1
  16   10   11 1
  17   10   29 1
  18   10   30 1
  19   11   12 1
  20   11   13 am
  21   12   31 1
  22   12   32 1
  23   13   14 1
  24   13   20 2
  25   14   16 ar
  26   14   15 ar
  27   15   19 ar
  28   15   21 1
  29   16   17 ar
  30   16   33 1
  31   17   18 ar
  32   17   34 1
  33   18   19 ar
  34   18   35 1
  35   19   36 1
  36   21   22 1
  37   22   23 1
  38   22   37 1
  39   22   38 1
  40   23   24 1
  41   23   25 1
  42   23   39 1
  43   24   40 1
  44   24   41 1
  45   24   42 1
  46   25   43 1
  47   25   44 1
  48   25   45 1
  49   26   46 1
  50   26   47 1
  51   26   48 1
  52   28   49 1
  53   28   50 1
  54   28   51 1

#	End of record

