#	Name: ASD01916995
#	Creating user name:	WinNT
#	Creation time:	15. 06. 2019 20:08

#	Modifying user name:	WinNT
#	Modification time:	15. 06. 2019 20:08

#	Program:	/corina/corina34_cracker 3.40 0067  02.08.2006

@<TRIPOS>MOLECULE
ASD01916995
  57   61    0    0    0
SMALL
NO_CHARGES


@<TRIPOS>ATOM
   1 C1             0.0018     1.3325     0.1711 C.ar    
   2 C2             0.0388    -0.0268     0.4369 C.ar    
   3 C3             1.2544    -0.6753     0.5831 C.ar    
   4 C4             2.4339     0.0307     0.4645 C.ar    
   5 C5             2.4013     1.3978     0.1968 C.ar    
   6 C6             1.1766     2.0460     0.0505 C.ar    
   7 C7             3.6674     2.1614     0.0689 C.2     
   8 N8             4.8981     1.6513     0.1887 N.2     
   9 N9             3.7612     3.4486    -0.1864 N.2     
  10 N10            5.1302     3.7593    -0.2219 N.pl3   
  11 C11            5.7914     2.6029     0.0180 C.2     
  12 C12            7.2604     2.4377     0.0787 C.ar    
  13 C13            5.7252     5.0743    -0.4730 C.3     
  14 C14            5.8526     5.8246     0.8277 C.2     
  15 O15            5.4829     5.3114     1.8626 O.2     
  16 N16            6.3775     7.0659     0.8410 N.am    
  17 C17            6.5109     7.8156     2.0993 C.3     
  18 C18            7.9517     8.3252     2.2118 C.3     
  19 N19            8.2970     9.0797     0.9996 N.3     
  20 C20            8.2601     8.2205    -0.1914 C.3     
  21 C21            6.8376     7.7043    -0.4016 C.3     
  22 C22            9.5367     9.6951     1.1319 C.ar    
  23 C23            8.0808     3.5447     0.2984 C.ar    
  24 N24           10.2271     9.5428     2.2513 N.ar    
  25 C25           10.0402    10.4586     0.0854 C.ar    
  26 C26           11.2871    11.0696     0.2342 C.ar    
  27 C27           11.9768    10.8831     1.4393 C.ar    
  28 C28           11.4077    10.1053     2.4257 C.ar    
  29 F29           -1.1138    -0.7218     0.5542 F       
  30 C30            9.4496     3.3854     0.3541 C.ar    
  31 C31           10.0105     2.1285     0.1918 C.ar    
  32 C32            9.2000     1.0258    -0.0272 C.ar    
  33 C33            7.8297     1.1735    -0.0779 C.ar    
  34 F34           11.3519     1.9777     0.2467 F       
  35 C35           11.8461    11.8652    -0.8172 C.1     
  36 N36           12.2895    12.4962    -1.6512 N.1     
  37 H37           -0.9478     1.8333     0.0538 H       
  38 H38            1.2787    -1.7349     0.7905 H       
  39 H39            3.3810    -0.4754     0.5793 H       
  40 H40            1.1469     3.1055    -0.1571 H       
  41 H41            6.7123     4.9475    -0.9176 H       
  42 H42            5.0885     5.6367    -1.1560 H       
  43 H43            5.8228     8.6609     2.0966 H       
  44 H44            6.2874     7.1606     2.9413 H       
  45 H45            8.0407     8.9751     3.0824 H       
  46 H46            8.6297     7.4785     2.3187 H       
  47 H47            8.5728     8.7945    -1.0637 H       
  48 H48            8.9338     7.3752    -0.0510 H       
  49 H49            6.8281     6.9774    -1.2138 H       
  50 H50            6.1779     8.5373    -0.6442 H       
  51 H51            7.6447     4.5247     0.4243 H       
  52 H52            9.4765    10.5772    -0.8281 H       
  53 H53           12.9438    11.3391     1.5921 H       
  54 H54           11.9344     9.9582     3.3570 H       
  55 H55           10.0855     4.2416     0.5241 H       
  56 H56            9.6419     0.0486    -0.1538 H       
  57 H57            7.1989     0.3136    -0.2483 H       
@<TRIPOS>BOND
   1    1    2 ar
   2    1    6 ar
   3    1   37 1
   4    2    3 ar
   5    2   29 1
   6    3    4 ar
   7    3   38 1
   8    4    5 ar
   9    4   39 1
  10    5    6 ar
  11    5    7 1
  12    6   40 1
  13    7    8 1
  14    7    9 2
  15    8   11 2
  16    9   10 1
  17   10   11 1
  18   10   13 1
  19   11   12 1
  20   12   23 ar
  21   12   33 ar
  22   13   14 1
  23   13   41 1
  24   13   42 1
  25   14   15 2
  26   14   16 am
  27   16   17 1
  28   16   21 1
  29   17   18 1
  30   17   43 1
  31   17   44 1
  32   18   19 1
  33   18   45 1
  34   18   46 1
  35   19   20 1
  36   19   22 1
  37   20   21 1
  38   20   47 1
  39   20   48 1
  40   21   49 1
  41   21   50 1
  42   22   25 ar
  43   22   24 ar
  44   23   30 ar
  45   23   51 1
  46   24   28 ar
  47   25   26 ar
  48   25   52 1
  49   26   27 ar
  50   26   35 1
  51   27   28 ar
  52   27   53 1
  53   28   54 1
  54   30   31 ar
  55   30   55 1
  56   31   32 ar
  57   31   34 1
  58   32   33 ar
  59   32   56 1
  60   33   57 1
  61   35   36 3

#	End of record

