#	Name: ASD01230241
#	Creating user name:	WinNT
#	Creation time:	15. 06. 2019 19:12

#	Modifying user name:	WinNT
#	Modification time:	15. 06. 2019 19:12

#	Program:	/corina/corina34_cracker 3.40 0067  02.08.2006

@<TRIPOS>MOLECULE
ASD01230241
  45   46    0    0    0
SMALL
NO_CHARGES


@<TRIPOS>ATOM
   1 C1            -0.0169     1.3980     0.0097 C.ar    
   2 C2             0.0021    -0.0041     0.0020 C.ar    
   3 C3             1.2324    -0.6605    -0.0132 C.ar    
   4 C4             2.3882     0.1054    -0.0201 C.ar    
   5 C5             2.2901     1.4830    -0.0118 C.ar    
   6 N6             1.1145     2.0833     0.0026 N.ar    
   7 N7            -1.2310     2.0713     0.0191 N.pl3   
   8 C8            -1.2643    -0.7756     0.0104 C.ar    
   9 C9            -1.4665    -1.7963    -0.9173 C.ar    
  10 C10           -2.6452    -2.5123    -0.9066 C.ar    
  11 C11           -3.6296    -2.2175     0.0267 C.ar    
  12 C12           -3.4313    -1.2017     0.9519 C.ar    
  13 C13           -2.2527    -0.4855     0.9498 C.ar    
  14 O14           -4.7901    -2.9245     0.0345 O.3     
  15 Si15          -4.7532    -4.2498     0.9844 Si      
  16 C16           -3.4124    -5.4004     0.3932 C.3     
  17 C17           -4.4061    -3.7437     2.7434 C.3     
  18 C18           -6.3987    -5.1193     0.9015 C.3     
  19 C19           -6.6837    -5.5350    -0.5431 C.3     
  20 C20           -6.3641    -6.3626     1.7926 C.3     
  21 C21           -7.4998    -4.1745     1.3870 C.3     
  22 H22            1.2837    -1.7392    -0.0192 H       
  23 H23            3.3572    -0.3714    -0.0316 H       
  24 H24            3.1905     2.0793    -0.0168 H       
  25 H25           -2.0626     1.5719     0.0203 H       
  26 H26           -1.2478     3.0412     0.0245 H       
  27 H27           -0.7012    -2.0259    -1.6439 H       
  28 H28           -2.8026    -3.3029    -1.6253 H       
  29 H29           -4.1992    -0.9745     1.6765 H       
  30 H30           -2.0971     0.3017     1.6726 H       
  31 H31           -2.4496    -4.8917     0.4417 H       
  32 H32           -3.3877    -6.2861     1.0280 H       
  33 H33           -3.6155    -5.6965    -0.6359 H       
  34 H34           -5.1906    -3.0705     3.0892 H       
  35 H35           -4.3814    -4.6294     3.3782 H       
  36 H36           -3.4434    -3.2350     2.7919 H       
  37 H37           -5.8993    -6.2082    -0.8890 H       
  38 H38           -7.6465    -6.0437    -0.5916 H       
  39 H39           -6.7084    -4.6493    -1.1779 H       
  40 H40           -6.1610    -6.0664     2.8217 H       
  41 H41           -7.3269    -6.8713     1.7441 H       
  42 H42           -5.5796    -7.0357     1.4467 H       
  43 H43           -7.5245    -3.2887     0.7522 H       
  44 H44           -8.4626    -4.6832     1.3385 H       
  45 H45           -7.2968    -3.8783     2.4161 H       
@<TRIPOS>BOND
   1    1    2 ar
   2    1    6 ar
   3    1    7 1
   4    2    3 ar
   5    2    8 1
   6    3    4 ar
   7    3   22 1
   8    4    5 ar
   9    4   23 1
  10    5    6 ar
  11    5   24 1
  12    7   25 1
  13    7   26 1
  14    8    9 ar
  15    8   13 ar
  16    9   10 ar
  17    9   27 1
  18   10   11 ar
  19   10   28 1
  20   11   12 ar
  21   11   14 1
  22   12   13 ar
  23   12   29 1
  24   13   30 1
  25   14   15 1
  26   15   16 1
  27   15   17 1
  28   15   18 1
  29   16   31 1
  30   16   32 1
  31   16   33 1
  32   17   34 1
  33   17   35 1
  34   17   36 1
  35   18   19 1
  36   18   21 1
  37   18   20 1
  38   19   37 1
  39   19   38 1
  40   19   39 1
  41   20   40 1
  42   20   41 1
  43   20   42 1
  44   21   43 1
  45   21   44 1
  46   21   45 1

#	End of record

