#	Name: ASD01208563
#	Creating user name:	WinNT
#	Creation time:	15. 06. 2019 19:10

#	Modifying user name:	WinNT
#	Modification time:	15. 06. 2019 19:10

#	Program:	/corina/corina34_cracker 3.40 0067  02.08.2006

@<TRIPOS>MOLECULE
ASD01208563
  78   79    0    0    0
SMALL
NO_CHARGES


@<TRIPOS>ATOM
   1 C1            -3.3644     1.4686    -0.6376 C.2     
   2 C2            -3.9735     0.1251    -0.5587 C.ar    
   3 C3            -3.2652    -0.9932    -1.0028 C.ar    
   4 C4            -3.8400    -2.2449    -0.9262 C.ar    
   5 C5            -5.1154    -2.3935    -0.4107 C.ar    
   6 C6            -5.8229    -1.2896     0.0312 C.ar    
   7 C7            -5.2579    -0.0329    -0.0343 C.ar    
   8 O8            -2.2449     1.6023    -1.0897 O.2     
   9 O9            -4.0526     2.5462    -0.2134 O.3     
  10 N10           -5.7260    -3.7396    -0.3321 N.pl3   
  11 O11           -5.1058    -4.7132    -0.7207 O.2     
  12 O12           -6.8485    -3.8736     0.1212 O.2     
  13 C13           -7.3553     7.5482     2.2743 C.3     
  14 O14           -6.7038     6.2732     2.0330 O.3     
  15 C15           -5.9230     6.1830     0.9399 C.2     
  16 N16           -5.2893     5.0274     0.6578 N.am    
  17 C17           -4.4397     4.9292    -0.5316 C.3     
  18 C18           -3.3918     3.8346    -0.3209 C.3     
  19 C19           -2.6114     4.1164     0.9646 C.3     
  20 O20           -3.5238     4.2494     2.0563 O.3     
  21 Si21          -2.8017     4.3660     3.5141 Si      
  22 C22           -4.1015     4.4903     4.8429 C.3     
  23 C23           -4.9409     5.7497     4.6190 C.3     
  24 C24           -1.4170     2.7514     5.2994 C.3     
  25 C25           -1.7532     2.8549     3.8104 C.3     
  26 C26           -2.5224     1.6067     3.3732 C.3     
  27 C27           -2.4829     7.0637     2.9370 C.3     
  28 C28           -1.7254     5.8862     3.5540 C.3     
  29 C29           -1.3627     6.2163     5.0033 C.3     
  30 C30           -8.1806     7.4605     3.5322 C.ar    
  31 C31           -7.6161     7.7802     4.7529 C.ar    
  32 C32           -8.3731     7.6997     5.9067 C.ar    
  33 C33           -9.6947     7.2999     5.8398 C.ar    
  34 C34          -10.2594     6.9811     4.6190 C.ar    
  35 C35           -9.5036     7.0657     3.4647 C.ar    
  36 O36           -5.7896     7.1434     0.2075 O.2     
  37 C37           -5.0065     3.2578     4.7879 C.3     
  38 C38           -5.3020     4.5826    -1.7470 C.3     
  39 H39           -2.2698    -0.8785    -1.4057 H       
  40 H40           -3.2934    -3.1107    -1.2698 H       
  41 H41           -6.8182    -1.4126     0.4321 H       
  42 H42           -5.8094     0.8274     0.3151 H       
  43 H43           -6.6003     8.3261     2.3886 H       
  44 H44           -8.0023     7.7909     1.4314 H       
  45 H45           -5.3958     4.2607     1.2425 H       
  46 H46           -3.9399     5.8830    -0.7009 H       
  47 H47           -2.7051     3.8213    -1.1673 H       
  48 H48           -1.9264     3.2917     1.1620 H       
  49 H49           -2.0444     5.0402     0.8504 H       
  50 H50           -3.6193     4.5438     5.8189 H       
  51 H51           -5.2989     5.7696     3.5896 H       
  52 H52           -5.7922     5.7447     5.2997 H       
  53 H53           -4.3297     6.6321     4.8082 H       
  54 H54           -0.7941     1.8735     5.4711 H       
  55 H55           -0.8789     3.6457     5.6134 H       
  56 H56           -2.3385     2.6610     5.8745 H       
  57 H57           -0.8312     2.9337     3.2344 H       
  58 H58           -2.8618     1.7306     2.3449 H       
  59 H59           -1.8695     0.7362     3.4380 H       
  60 H60           -3.3840     1.4639     4.0255 H       
  61 H61           -1.8068     7.9110     2.8232 H       
  62 H62           -2.8707     6.7745     1.9602 H       
  63 H63           -3.3108     7.3444     3.5880 H       
  64 H64           -0.8146     5.7016     2.9845 H       
  65 H65           -0.6950     5.4487     5.3946 H       
  66 H66           -0.8646     7.1850     5.0415 H       
  67 H67           -2.2701     6.2503     5.6062 H       
  68 H68           -6.5836     8.0926     4.8052 H       
  69 H69           -7.9320     7.9488     6.8605 H       
  70 H70          -10.2860     7.2363     6.7413 H       
  71 H71          -11.2918     6.6684     4.5668 H       
  72 H72           -9.9458     6.8202     2.5104 H       
  73 H73           -5.8345     3.3836     5.4855 H       
  74 H74           -5.3975     3.1390     3.7775 H       
  75 H75           -4.4320     2.3728     5.0616 H       
  76 H76           -5.8018     3.6288    -1.5778 H       
  77 H77           -6.0486     5.3624    -1.8971 H       
  78 H78           -4.6699     4.5095    -2.6320 H       
@<TRIPOS>BOND
   1    1    2 1
   2    1    8 2
   3    1    9 1
   4    2    3 ar
   5    2    7 ar
   6    3    4 ar
   7    3   39 1
   8    4    5 ar
   9    4   40 1
  10    5    6 ar
  11    5   10 1
  12    6    7 ar
  13    6   41 1
  14    7   42 1
  15    9   18 1
  16   10   11 2
  17   10   12 2
  18   13   14 1
  19   13   30 1
  20   13   43 1
  21   13   44 1
  22   14   15 1
  23   15   16 am
  24   15   36 2
  25   16   17 1
  26   16   45 1
  27   17   18 1
  28   17   38 1
  29   17   46 1
  30   18   19 1
  31   18   47 1
  32   19   20 1
  33   19   48 1
  34   19   49 1
  35   20   21 1
  36   21   22 1
  37   21   25 1
  38   21   28 1
  39   22   23 1
  40   22   37 1
  41   22   50 1
  42   23   51 1
  43   23   52 1
  44   23   53 1
  45   24   25 1
  46   24   54 1
  47   24   55 1
  48   24   56 1
  49   25   26 1
  50   25   57 1
  51   26   58 1
  52   26   59 1
  53   26   60 1
  54   27   28 1
  55   27   61 1
  56   27   62 1
  57   27   63 1
  58   28   29 1
  59   28   64 1
  60   29   65 1
  61   29   66 1
  62   29   67 1
  63   30   31 ar
  64   30   35 ar
  65   31   32 ar
  66   31   68 1
  67   32   33 ar
  68   32   69 1
  69   33   34 ar
  70   33   70 1
  71   34   35 ar
  72   34   71 1
  73   35   72 1
  74   37   73 1
  75   37   74 1
  76   37   75 1
  77   38   76 1
  78   38   77 1
  79   38   78 1

#	End of record

