#	Name: ASD00311223
#	Creating user name:	WinNT
#	Creation time:	15. 06. 2019 18:34

#	Modifying user name:	WinNT
#	Modification time:	15. 06. 2019 18:34

#	Program:	/corina/corina34_cracker 3.40 0067  02.08.2006

@<TRIPOS>MOLECULE
ASD00311223
  46   50    0    0    0
SMALL
NO_CHARGES


@<TRIPOS>ATOM
   1 C1             0.0646     1.2449     0.0003 C.2     
   2 C2            -0.0789    -0.1285    -0.0790 C.2     
   3 C3             1.0900    -0.9399    -0.1836 C.2     
   4 C4             2.3404    -0.3366    -0.2035 C.2     
   5 C5             2.4315     1.0680    -0.1198 C.2     
   6 N6             1.3210     1.8144    -0.0223 N.am    
   7 C7            -1.4766    -0.5454    -0.0402 C.2     
   8 C8            -2.3545     0.4818     0.0648 C.2     
   9 S9            -1.5122     2.0170     0.1291 S.3     
  10 O10            3.5257     1.6074    -0.1364 O.2     
  11 C11            3.5666    -1.1604    -0.3110 C.ar    
  12 C12            4.3812    -1.0596    -1.4386 C.ar    
  13 C13            5.5225    -1.8293    -1.5328 C.ar    
  14 C14            5.8591    -2.7001    -0.5118 C.ar    
  15 C15            5.0548    -2.8049     0.6090 C.ar    
  16 C16            3.9143    -2.0359     0.7175 C.ar    
  17 C17           -1.8978    -1.9622    -0.1094 C.ar    
  18 C18           -2.4844    -2.5737     0.9993 C.ar    
  19 C19           -2.8753    -3.8949     0.9282 C.ar    
  20 C20           -2.6868    -4.6134    -0.2391 C.ar    
  21 C21           -2.1058    -4.0129    -1.3419 C.ar    
  22 C22           -1.7153    -2.6908    -1.2854 C.ar    
  23 C23           -3.8211     0.3277     0.1225 C.ar    
  24 C24           -4.5595     1.0001     1.0992 C.ar    
  25 C25           -5.9300     0.8519     1.1468 C.ar    
  26 C26           -6.5736     0.0395     0.2300 C.ar    
  27 C27           -5.8485    -0.6299    -0.7401 C.ar    
  28 C28           -4.4781    -0.4865    -0.8031 C.ar    
  29 O29            0.9809    -2.2866    -0.2624 O.3     
  30 H30            1.4035     2.7792     0.0339 H       
  31 H31            4.1191    -0.3807    -2.2366 H       
  32 H32            6.1541    -1.7522    -2.4054 H       
  33 H33            6.7532    -3.3008    -0.5902 H       
  34 H34            5.3224    -3.4870     1.4024 H       
  35 H35            3.2896    -2.1153     1.5949 H       
  36 H36           -2.6317    -2.0141     1.9112 H       
  37 H37           -3.3291    -4.3695     1.7857 H       
  38 H38           -2.9942    -5.6474    -0.2896 H       
  39 H39           -1.9614    -4.5791    -2.2502 H       
  40 H40           -1.2660    -2.2219    -2.1484 H       
  41 H41           -4.0584     1.6342     1.8157 H       
  42 H42           -6.5021     1.3708     1.9017 H       
  43 H43           -7.6469    -0.0729     0.2719 H       
  44 H44           -6.3573    -1.2627    -1.4523 H       
  45 H45           -3.9139    -1.0060    -1.5636 H       
  46 H46            1.8288    -2.7466    -0.3303 H       
@<TRIPOS>BOND
   1    1    2 2
   2    1    6 1
   3    1    9 1
   4    2    3 1
   5    2    7 1
   6    3    4 2
   7    3   29 1
   8    4    5 1
   9    4   11 1
  10    5    6 am
  11    5   10 2
  12    6   30 1
  13    7    8 2
  14    7   17 1
  15    8    9 1
  16    8   23 1
  17   11   12 ar
  18   11   16 ar
  19   12   13 ar
  20   12   31 1
  21   13   14 ar
  22   13   32 1
  23   14   15 ar
  24   14   33 1
  25   15   16 ar
  26   15   34 1
  27   16   35 1
  28   17   18 ar
  29   17   22 ar
  30   18   19 ar
  31   18   36 1
  32   19   20 ar
  33   19   37 1
  34   20   21 ar
  35   20   38 1
  36   21   22 ar
  37   21   39 1
  38   22   40 1
  39   23   24 ar
  40   23   28 ar
  41   24   25 ar
  42   24   41 1
  43   25   26 ar
  44   25   42 1
  45   26   27 ar
  46   26   43 1
  47   27   28 ar
  48   27   44 1
  49   28   45 1
  50   29   46 1

#	End of record

