#	Name: ASD01916049
#	Creating user name:	WinNT
#	Creation time:	15. 06. 2019 20:06

#	Modifying user name:	WinNT
#	Modification time:	15. 06. 2019 20:06

#	Program:	/corina/corina34_cracker 3.40 0067  02.08.2006

@<TRIPOS>MOLECULE
ASD01916049
  47   49    0    0    0
SMALL
NO_CHARGES


@<TRIPOS>ATOM
   1 C1            -0.0315     1.4093    -0.2164 C.ar    
   2 C2            -0.0030     0.0133    -0.1016 C.ar    
   3 C3            -1.2078    -0.6642    -0.0230 C.ar    
   4 C4            -2.4020     0.0625    -0.0606 C.ar    
   5 C5            -3.6930    -0.6512     0.0226 C.2     
   6 N6            -4.8409     0.0445     0.1440 N.am    
   7 O7            -3.7197    -1.8659    -0.0184 O.2     
   8 C8             1.1877     2.1558    -0.3009 C.1     
   9 C9             2.1872     2.7677    -0.3702 C.1     
  10 C10            3.4063     3.5142    -0.4548 C.ar    
  11 C11            3.3708     4.9064    -0.5692 C.ar    
  12 C12            5.8118     3.5803    -0.4990 C.ar    
  13 C13            4.5509     5.6195    -0.6497 C.ar    
  14 N14           -2.3904     1.3874    -0.1699 N.ar    
  15 C15           -1.2704     2.0650    -0.2533 C.ar    
  16 C16            4.6399     2.8532    -0.4174 C.ar    
  17 C17            5.7682     4.9578    -0.6174 C.ar    
  18 C18           -6.1407    -0.6350     0.0572 C.3     
  19 C19           -4.8163     1.4958     0.3716 C.3     
  20 C20           -5.6557     1.8145     1.6128 C.3     
  21 C21           -7.0591     1.2294     1.4386 C.3     
  22 C22           -6.9626    -0.2880     1.3026 C.3     
  23 C23           -6.8831    -0.1640    -1.1949 C.3     
  24 C24           -5.9248    -2.1480    -0.0133 C.3     
  25 O25           -7.8548     1.5526     2.5807 O.3     
  26 F26           -1.2296    -2.0105     0.0883 F       
  27 F27            4.6843     1.5079    -0.3013 F       
  28 F28            4.5184     6.9656    -0.7608 F       
  29 H29            0.9352    -0.5210    -0.0754 H       
  30 H30            2.4229     5.4234    -0.5949 H       
  31 H31            6.7641     3.0715    -0.4744 H       
  32 H32           -1.3026     3.1409    -0.3410 H       
  33 H33            6.6877     5.5209    -0.6804 H       
  34 H34           -3.7889     1.8232     0.5314 H       
  35 H35           -5.2350     2.0087    -0.4943 H       
  36 H36           -5.1852     1.3758     2.4927 H       
  37 H37           -5.7250     2.8952     1.7374 H       
  38 H38           -7.5195     1.6500     0.5447 H       
  39 H39           -7.9631    -0.7086     1.2019 H       
  40 H40           -6.4805    -0.7027     2.1878 H       
  41 H41           -6.2910    -0.4005    -2.0790 H       
  42 H42           -7.8470    -0.6692    -1.2574 H       
  43 H43           -7.0404     0.9132    -1.1405 H       
  44 H44           -5.3276    -2.4700     0.8399 H       
  45 H45           -6.8900    -2.6541     0.0072 H       
  46 H46           -5.4030    -2.3980    -0.9370 H       
  47 H47           -7.9582     2.5021     2.7321 H       
@<TRIPOS>BOND
   1    1    2 ar
   2    1    8 1
   3    1   15 ar
   4    2    3 ar
   5    2   29 1
   6    3    4 ar
   7    3   26 1
   8    4   14 ar
   9    4    5 1
  10    5    6 am
  11    5    7 2
  12    6   19 1
  13    6   18 1
  14    8    9 3
  15    9   10 1
  16   10   11 ar
  17   10   16 ar
  18   11   13 ar
  19   11   30 1
  20   12   17 ar
  21   12   16 ar
  22   12   31 1
  23   13   28 1
  24   13   17 ar
  25   14   15 ar
  26   15   32 1
  27   16   27 1
  28   17   33 1
  29   18   23 1
  30   18   24 1
  31   18   22 1
  32   19   20 1
  33   19   34 1
  34   19   35 1
  35   20   21 1
  36   20   36 1
  37   20   37 1
  38   21   22 1
  39   21   25 1
  40   21   38 1
  41   22   39 1
  42   22   40 1
  43   23   41 1
  44   23   42 1
  45   23   43 1
  46   24   44 1
  47   24   45 1
  48   24   46 1
  49   25   47 1

#	End of record

