#	Name: ASD01150682
#	Creating user name:	WinNT
#	Creation time:	15. 06. 2019 19:04

#	Modifying user name:	WinNT
#	Modification time:	15. 06. 2019 19:04

#	Program:	/corina/corina34_cracker 3.40 0067  02.08.2006

@<TRIPOS>MOLECULE
ASD01150682
  38   41    0    0    0
SMALL
NO_CHARGES


@<TRIPOS>ATOM
   1 C1            -0.0236     1.5067     0.0067 C.2     
   2 C2            -0.6749     1.3685     1.3587 C.3     
   3 C3             3.6731     3.5104    -0.3659 C.ar    
   4 C4             2.5143     4.2776    -0.4033 C.ar    
   5 C5             1.2617     3.6301    -0.2807 C.ar    
   6 C6             1.2449     2.2286    -0.1252 C.ar    
   7 C7             2.4642     1.5401    -0.0989 C.ar    
   8 N8             3.6001     2.1800    -0.2146 N.ar    
   9 C9             2.7826     5.7153    -0.5739 C.ar    
  10 C10            4.1382     6.0011    -0.6613 C.ar    
  11 S11            5.0934     4.5330    -0.5314 S.3     
  12 C12            4.5571     7.3269    -0.8260 C.ar    
  13 C13            3.6346     8.3448    -0.9010 C.ar    
  14 C14            2.2800     8.0640    -0.8142 C.ar    
  15 C15            1.8513     6.7689    -0.6525 C.ar    
  16 C16            0.0014     4.4043    -0.3142 C.ar    
  17 C17           -0.9064     4.2204    -1.3581 C.ar    
  18 C18           -2.0798     4.9456    -1.3835 C.ar    
  19 C19           -2.3571     5.8539    -0.3773 C.ar    
  20 C20           -1.4613     6.0408     0.6604 C.ar    
  21 C21           -0.2872     5.3175     0.7009 C.ar    
  22 C22            2.4686     0.0422     0.0668 C.3     
  23 F23           -0.8786     0.0137     1.6420 F       
  24 F24            0.1548     1.9295     2.3355 F       
  25 F25           -1.9054     2.0341     1.3538 F       
  26 O26           -0.5470     1.0160    -0.9717 O.2     
  27 H27            5.6112     7.5519    -0.8943 H       
  28 H28            3.9666     9.3647    -1.0274 H       
  29 H29            1.5593     8.8662    -0.8732 H       
  30 H30            0.7943     6.5575    -0.5856 H       
  31 H31           -0.6907     3.5123    -2.1445 H       
  32 H32           -2.7832     4.8042    -2.1908 H       
  33 H33           -3.2768     6.4196    -0.4022 H       
  34 H34           -1.6835     6.7516     1.4426 H       
  35 H35            0.4092     5.4611     1.5138 H       
  36 H36            2.3371    -0.4314    -0.9061 H       
  37 H37            3.4185    -0.2728     0.4988 H       
  38 H38            1.6534    -0.2526     0.7275 H       
@<TRIPOS>BOND
   1    1    2 1
   2    1    6 1
   3    1   26 2
   4    2   23 1
   5    2   24 1
   6    2   25 1
   7    3    4 ar
   8    3    8 ar
   9    3   11 1
  10    4    5 ar
  11    4    9 1
  12    5    6 ar
  13    5   16 1
  14    6    7 ar
  15    7    8 ar
  16    7   22 1
  17    9   10 ar
  18    9   15 ar
  19   10   11 1
  20   10   12 ar
  21   12   13 ar
  22   12   27 1
  23   13   14 ar
  24   13   28 1
  25   14   15 ar
  26   14   29 1
  27   15   30 1
  28   16   17 ar
  29   16   21 ar
  30   17   18 ar
  31   17   31 1
  32   18   19 ar
  33   18   32 1
  34   19   20 ar
  35   19   33 1
  36   20   21 ar
  37   20   34 1
  38   21   35 1
  39   22   36 1
  40   22   37 1
  41   22   38 1

#	End of record

