#	Name: ASD03570044
#	Creating user name:	WinNT
#	Creation time:	15. 06. 2019 20:43

#	Modifying user name:	WinNT
#	Modification time:	15. 06. 2019 20:43

#	Program:	/corina/corina34_cracker 3.40 0067  02.08.2006

@<TRIPOS>MOLECULE
ASD03570044
  75   79    0    0    0
SMALL
NO_CHARGES


@<TRIPOS>ATOM
   1 C1            11.3521    -0.7983    -1.9960 C.ar    
   2 C2            10.4955    -1.8833    -1.9823 C.ar    
   3 C3            10.3268    -2.6215    -0.8256 C.ar    
   4 C4            11.0186    -2.2746     0.3254 C.ar    
   5 C5            11.8834    -1.1799     0.3112 C.ar    
   6 C6            12.0458    -0.4452    -0.8530 C.ar    
   7 N7            10.8493    -3.0199     1.4975 N.pl3   
   8 C8            11.2098    -4.6592     3.0745 C.ar    
   9 C9            10.0610    -3.8306     3.5927 C.3     
  10 C10            9.8388    -2.7515     2.5258 C.3     
  11 C11           11.6138    -4.1319     1.8564 C.ar    
  12 C12           12.6717    -4.7362     1.1734 C.ar    
  13 C13           13.3021    -5.8406     1.7047 C.ar    
  14 C14           12.8912    -6.3593     2.9192 C.ar    
  15 C15           11.8453    -5.7670     3.6018 C.ar    
  16 C16            8.8083    -4.6895     3.7448 C.3     
  17 C17           10.4269    -3.1872     4.9279 C.3     
  18 C18            9.2350    -2.3744     5.4414 C.3     
  19 N19            8.0690    -3.2552     5.5878 N.3     
  20 C20            7.6684    -3.8288     4.2968 C.3     
  21 C21            6.9486    -2.5448     6.2186 C.3     
  22 C22            6.0435    -1.9553     5.1350 C.3     
  23 C23            5.3764    -3.0900     4.3549 C.3     
  24 C24            4.9683    -1.0837     5.7870 C.3     
  25 C25            6.8808    -1.1029     4.1794 C.3     
  26 N26           12.5852    -0.8235     1.4709 N.am    
  27 C27           12.9866     0.4504     1.6509 C.2     
  28 N28           13.5916     0.8103     2.8002 N.am    
  29 O29           12.8029     1.2751     0.7763 O.2     
  30 C30           13.9065     2.1556     3.0349 C.ar    
  31 C31           13.3773     4.4827     2.7988 C.ar    
  32 C32           13.0667     3.1572     2.5668 C.ar    
  33 C33           15.0553     2.4871     3.7404 C.ar    
  34 C34           15.3648     3.8129     3.9718 C.ar    
  35 C35           14.5278     4.8133     3.4997 C.ar    
  36 O36           14.8333     6.1186     3.7274 O.3     
  37 C37           16.0332     6.3865     4.4558 C.3     
  38 F38           17.1276     5.8599     3.7615 F       
  39 F39           16.1930     7.7690     4.5989 F       
  40 F40           15.9536     5.7930     5.7201 F       
  41 H41           11.4834    -0.2275    -2.9034 H       
  42 H42            9.9561    -2.1547    -2.8777 H       
  43 H43            9.6563    -3.4681    -0.8181 H       
  44 H44           12.7142     0.4030    -0.8674 H       
  45 H45            9.9877    -1.7599     2.9533 H       
  46 H46            8.8373    -2.8365     2.1040 H       
  47 H47           12.9969    -4.3364     0.2243 H       
  48 H48           14.1194    -6.3026     1.1708 H       
  49 H49           13.3862    -7.2254     3.3331 H       
  50 H50           11.5239    -6.1714     4.5502 H       
  51 H51            8.5228    -5.0917     2.7728 H       
  52 H52            9.0111    -5.5098     4.4333 H       
  53 H53           10.6755    -3.9645     5.6504 H       
  54 H54           11.2847    -2.5286     4.7915 H       
  55 H55            9.4833    -1.9365     6.4082 H       
  56 H56            9.0038    -1.5804     4.7314 H       
  57 H57            7.4476    -3.0247     3.5948 H       
  58 H58            6.7805    -4.4460     4.4333 H       
  59 H59            6.3758    -3.2409     6.8313 H       
  60 H60            7.3348    -1.7415     6.8460 H       
  61 H61            5.4244    -4.0093     4.9385 H       
  62 H62            4.3341    -2.8353     4.1632 H       
  63 H63            5.8955    -3.2336     3.4073 H       
  64 H64            5.4436    -0.2754     6.3428 H       
  65 H65            4.3236    -0.6638     5.0150 H       
  66 H66            4.3719    -1.6911     6.4678 H       
  67 H67            6.9969    -1.6277     3.2311 H       
  68 H68            6.3795    -0.1502     4.0083 H       
  69 H69            7.8624    -0.9234     4.6178 H       
  70 H70           12.7820    -1.4937     2.1439 H       
  71 H71           13.8091     0.1382     3.4649 H       
  72 H72           12.7243     5.2619     2.4345 H       
  73 H73           12.1709     2.8999     2.0211 H       
  74 H74           15.7067     1.7082     4.1086 H       
  75 H75           16.2584     4.0709     4.5206 H       
@<TRIPOS>BOND
   1    1    2 ar
   2    1    6 ar
   3    1   41 1
   4    2    3 ar
   5    2   42 1
   6    3    4 ar
   7    3   43 1
   8    4    5 ar
   9    4    7 1
  10    5    6 ar
  11    5   26 1
  12    6   44 1
  13    7   11 1
  14    7   10 1
  15    8    9 1
  16    8   11 ar
  17    8   15 ar
  18    9   10 1
  19    9   17 1
  20    9   16 1
  21   10   45 1
  22   10   46 1
  23   11   12 ar
  24   12   13 ar
  25   12   47 1
  26   13   14 ar
  27   13   48 1
  28   14   15 ar
  29   14   49 1
  30   15   50 1
  31   16   20 1
  32   16   51 1
  33   16   52 1
  34   17   18 1
  35   17   53 1
  36   17   54 1
  37   18   19 1
  38   18   55 1
  39   18   56 1
  40   19   20 1
  41   19   21 1
  42   20   57 1
  43   20   58 1
  44   21   22 1
  45   21   59 1
  46   21   60 1
  47   22   23 1
  48   22   24 1
  49   22   25 1
  50   23   61 1
  51   23   62 1
  52   23   63 1
  53   24   64 1
  54   24   65 1
  55   24   66 1
  56   25   67 1
  57   25   68 1
  58   25   69 1
  59   26   27 am
  60   26   70 1
  61   27   28 am
  62   27   29 2
  63   28   30 1
  64   28   71 1
  65   30   33 ar
  66   30   32 ar
  67   31   32 ar
  68   31   35 ar
  69   31   72 1
  70   32   73 1
  71   33   34 ar
  72   33   74 1
  73   34   35 ar
  74   34   75 1
  75   35   36 1
  76   36   37 1
  77   37   38 1
  78   37   39 1
  79   37   40 1

#	End of record

