#	Name: ASD04930001
#	Creating user name:	WinNT
#	Creation time:	15. 06. 2019 20:56

#	Modifying user name:	WinNT
#	Modification time:	15. 06. 2019 20:56

#	Program:	/corina/corina34_cracker 3.40 0067  02.08.2006

@<TRIPOS>MOLECULE
ASD04930001
  65   66    0    0    0
SMALL
NO_CHARGES


@<TRIPOS>ATOM
   1 C1            -0.0252     1.3614     0.0723 C.ar    
   2 C2            -0.0001    -0.0209     0.0631 C.ar    
   3 C3             1.2034    -0.6977     0.0329 C.ar    
   4 C4             2.4036     0.0034     0.0111 C.ar    
   5 C5             2.3707     1.3983     0.0091 C.ar    
   6 C6             1.1607     2.0722     0.0454 C.ar    
   7 N7             3.6035    -0.7014    -0.0267 N.am    
   8 C8             4.8090    -0.2187     0.2590 C.2     
   9 C9             5.0297     1.1732     0.7909 C.3     
  10 S10            3.8840     2.3047    -0.0538 S.3     
  11 O11            5.7746    -0.9316     0.0837 O.2     
  12 N12            5.4244     2.0646     3.0642 N.am    
  13 C13            4.7627     1.1963     2.2739 C.2     
  14 O14            6.6482     3.7172     4.7510 O.2     
  15 C15            5.8379     2.9545     5.2333 C.2     
  16 N16            5.1762     2.0862     4.4429 N.am    
  17 C17            8.5905     8.4359    17.5398 C.3     
  18 C18            3.5309    -2.1111    -0.4186 C.3     
  19 O19            3.9524     0.4336     2.7561 O.2     
  20 C20            3.4291    -2.9840     0.8338 C.3     
  21 C21            8.8615     8.4124    16.0342 C.3     
  22 C22            7.9866     7.3442    15.3751 C.3     
  23 C23            8.2576     7.3207    13.8695 C.3     
  24 C24            7.3827     6.2526    13.2104 C.3     
  25 C25            7.6537     6.2291    11.7048 C.3     
  26 C26            6.7787     5.1609    11.0457 C.3     
  27 C27            7.0498     5.1374     9.5401 C.3     
  28 C28            6.1748     4.0693     8.8810 C.3     
  29 C29            6.4459     4.0458     7.3753 C.3     
  30 C30            5.5709     2.9776     6.7162 C.3     
  31 H31           -0.9694     1.8852     0.0959 H       
  32 H32           -0.9272    -0.5748     0.0801 H       
  33 H33            1.2121    -1.7777     0.0265 H       
  34 H34            1.1437     3.1520     0.0530 H       
  35 H35            6.0573     1.4805     0.5966 H       
  36 H36            6.0725     2.6747     2.6785 H       
  37 H37            4.5281     1.4761     4.8286 H       
  38 H38            7.5400     8.6670    17.7163 H       
  39 H39            8.8245     7.4605    17.9664 H       
  40 H40            9.2138     9.1968    18.0094 H       
  41 H41            2.6526    -2.2695    -1.0444 H       
  42 H42            4.4279    -2.3797    -0.9768 H       
  43 H43            4.3074    -2.8256     1.4595 H       
  44 H44            2.5322    -2.7155     1.3919 H       
  45 H45            3.3751    -4.0329     0.5421 H       
  46 H46            8.6275     9.3877    15.6076 H       
  47 H47            9.9120     8.1812    15.8577 H       
  48 H48            8.2206     6.3688    15.8017 H       
  49 H49            6.9361     7.5754    15.5516 H       
  50 H50            8.0236     8.2961    13.4429 H       
  51 H51            9.3081     7.0896    13.6930 H       
  52 H52            7.6167     5.2772    13.6370 H       
  53 H53            6.3322     6.4837    13.3869 H       
  54 H54            7.4197     7.2044    11.2782 H       
  55 H55            8.7042     5.9979    11.5283 H       
  56 H56            7.0128     4.1855    11.4723 H       
  57 H57            5.7283     5.3921    11.2222 H       
  58 H58            6.8158     6.1128     9.1135 H       
  59 H59            8.1003     4.9063     9.3636 H       
  60 H60            6.4089     3.0939     9.3075 H       
  61 H61            5.1244     4.3004     9.0574 H       
  62 H62            6.2119     5.0211     6.9488 H       
  63 H63            7.4964     3.8146     7.1989 H       
  64 H64            4.5205     3.2088     6.8927 H       
  65 H65            5.8050     2.0022     7.1428 H       
@<TRIPOS>BOND
   1    1    2 ar
   2    1    6 ar
   3    1   31 1
   4    2    3 ar
   5    2   32 1
   6    3    4 ar
   7    3   33 1
   8    4    5 ar
   9    4    7 1
  10    5    6 ar
  11    5   10 1
  12    6   34 1
  13    7    8 am
  14    7   18 1
  15    8    9 1
  16    8   11 2
  17    9   10 1
  18    9   13 1
  19    9   35 1
  20   12   13 am
  21   12   16 1
  22   12   36 1
  23   13   19 2
  24   14   15 2
  25   15   16 am
  26   15   30 1
  27   16   37 1
  28   17   21 1
  29   17   38 1
  30   17   39 1
  31   17   40 1
  32   18   20 1
  33   18   41 1
  34   18   42 1
  35   20   43 1
  36   20   44 1
  37   20   45 1
  38   21   22 1
  39   21   46 1
  40   21   47 1
  41   22   23 1
  42   22   48 1
  43   22   49 1
  44   23   24 1
  45   23   50 1
  46   23   51 1
  47   24   25 1
  48   24   52 1
  49   24   53 1
  50   25   26 1
  51   25   54 1
  52   25   55 1
  53   26   27 1
  54   26   56 1
  55   26   57 1
  56   27   28 1
  57   27   58 1
  58   27   59 1
  59   28   29 1
  60   28   60 1
  61   28   61 1
  62   29   30 1
  63   29   62 1
  64   29   63 1
  65   30   64 1
  66   30   65 1

#	End of record

