#	Name: ASD01900658
#	Creating user name:	WinNT
#	Creation time:	15. 06. 2019 19:52

#	Modifying user name:	WinNT
#	Modification time:	15. 06. 2019 19:52

#	Program:	/corina/corina34_cracker 3.40 0067  02.08.2006

@<TRIPOS>MOLECULE
ASD01900658
  42   45    0    0    0
SMALL
NO_CHARGES


@<TRIPOS>ATOM
   1 C1            -0.5032     1.4621    -0.1005 C.ar    
   2 C2            -0.4431     0.0740    -0.1673 C.ar    
   3 C3            -1.5965    -0.6820    -0.1270 C.ar    
   4 C4            -2.8335    -0.0601    -0.0192 C.ar    
   5 C5            -2.8929     1.3388     0.0437 C.ar    
   6 O6            -3.9676    -0.7927     0.0322 O.3     
   7 C7            -5.1767    -0.2389    -0.1610 C.2     
   8 C8            -5.3871     1.0979    -0.1132 C.2     
   9 C9            -4.2305     1.9763     0.1452 C.2     
  10 C10           -6.3247    -1.1258    -0.4366 C.ar    
  11 N11           -7.5331    -0.5900    -0.6309 N.ar    
  12 C12           -8.5953    -1.3144    -0.8800 C.ar    
  13 C13           -8.4965    -2.7150    -0.9526 C.ar    
  14 C14           -7.2292    -3.3242    -0.7521 C.ar    
  15 C15           -6.1248    -2.4962    -0.4940 C.ar    
  16 C16           -9.6124    -3.5234    -1.2165 C.ar    
  17 C17           -9.4636    -4.8763    -1.2761 C.ar    
  18 C18           -8.2199    -5.4733    -1.0788 C.ar    
  19 C19           -7.1138    -4.7211    -0.8209 C.ar    
  20 C20           -1.7310     2.0979     0.0109 C.ar    
  21 N21            0.6743     2.2163    -0.1398 N.pl3   
  22 C22            1.9758     1.5439    -0.1204 C.3     
  23 C23            0.6061     3.6784    -0.2003 C.3     
  24 N24           -4.3747     3.2437     0.4475 N.2     
  25 O25           -3.2493     4.0125     0.8314 O.3     
  26 H26            0.5154    -0.4165    -0.2517 H       
  27 H27           -1.5373    -1.7591    -0.1799 H       
  28 H28           -6.3746     1.5097    -0.2603 H       
  29 H29           -9.5509    -0.8340    -1.0299 H       
  30 H30           -5.1434    -2.9182    -0.3356 H       
  31 H31          -10.5832    -3.0762    -1.3709 H       
  32 H32          -10.3240    -5.4967    -1.4793 H       
  33 H33           -8.1317    -6.5484    -1.1312 H       
  34 H34           -6.1557    -5.1961    -0.6703 H       
  35 H35           -1.7832     3.1753     0.0631 H       
  36 H36            2.2917     1.3344    -1.1424 H       
  37 H37            2.7106     2.1884     0.3621 H       
  38 H38            1.8934     0.6087     0.4334 H       
  39 H39           -0.4336     3.9897    -0.3017 H       
  40 H40            1.0240     4.0998     0.7140 H       
  41 H41            1.1771     4.0336    -1.0581 H       
  42 H42           -3.4543     4.9353     1.0351 H       
@<TRIPOS>BOND
   1    1    2 ar
   2    1   21 1
   3    1   20 ar
   4    2    3 ar
   5    2   26 1
   6    3    4 ar
   7    3   27 1
   8    4    5 ar
   9    4    6 1
  10    5   20 ar
  11    5    9 1
  12    6    7 1
  13    7    8 2
  14    7   10 1
  15    8    9 1
  16    8   28 1
  17    9   24 2
  18   10   11 ar
  19   10   15 ar
  20   11   12 ar
  21   12   13 ar
  22   12   29 1
  23   13   14 ar
  24   13   16 ar
  25   14   15 ar
  26   14   19 ar
  27   15   30 1
  28   16   17 ar
  29   16   31 1
  30   17   18 ar
  31   17   32 1
  32   18   19 ar
  33   18   33 1
  34   19   34 1
  35   20   35 1
  36   21   22 1
  37   21   23 1
  38   22   36 1
  39   22   37 1
  40   22   38 1
  41   23   39 1
  42   23   40 1
  43   23   41 1
  44   24   25 1
  45   25   42 1

#	End of record

