#	Name: ASD03731488
#	Creating user name:	WinNT
#	Creation time:	15. 06. 2019 20:45

#	Modifying user name:	WinNT
#	Modification time:	15. 06. 2019 20:45

#	Program:	/corina/corina34_cracker 3.40 0067  02.08.2006

@<TRIPOS>MOLECULE
ASD03731488
  65   71    0    0    0
SMALL
NO_CHARGES


@<TRIPOS>ATOM
   1 N1            -0.0169     1.3951     0.0097 N.pl3   
   2 N2             0.0021    -0.0041     0.0020 N.2     
   3 C3             1.2420    -0.4102    -0.0120 C.2     
   4 C4             2.0767     0.7302    -0.0138 C.2     
   5 C5             1.2531     1.8384    -0.0000 C.2     
   6 C6             3.5507     0.7356    -0.0272 C.2     
   7 O7             4.1549     1.7909    -0.0269 O.2     
   8 N8             4.2288    -0.4291    -0.0396 N.am    
   9 C9             5.6937    -0.4238    -0.0529 C.3     
  10 C10            6.2089    -1.8644    -0.0653 C.3     
  11 C11            7.7388    -1.8588    -0.0792 C.3     
  12 O12            4.9322    -8.1196    -2.2275 O.3     
  13 C13            5.0092    -9.5354    -2.4782 C.3     
  14 O14            6.3350    -9.7173    -3.0093 O.3     
  15 C15            7.0817    -8.7011    -2.4852 C.ar    
  16 C16            6.2185    -7.7186    -2.0055 C.ar    
  17 C17            8.4504    -8.5328    -2.3758 C.ar    
  18 C18            8.9749    -7.3846    -1.7899 C.ar    
  19 C19            8.1028    -6.4064    -1.3220 C.ar    
  20 C20            6.7376    -6.5741    -1.4240 C.ar    
  21 O21           10.2746    -7.0334    -1.5710 O.3     
  22 C22            8.9584    -5.2935    -0.7785 C.3     
  23 C23           10.3505    -5.6135    -1.3398 C.3     
  24 N24            8.2321    -3.2382    -0.0911 N.am    
  25 C25            8.4758    -3.9405    -1.2156 C.2     
  26 C26            8.9557    -5.2515     0.7209 C.ar    
  27 C27            9.2877    -6.1624     1.6988 C.ar    
  28 C28            9.1771    -5.8170     3.0339 C.ar    
  29 C29            8.7316    -4.5552     3.3838 C.ar    
  30 C30            8.3968    -3.6397     2.4080 C.ar    
  31 C31            8.5055    -3.9786     1.0615 C.ar    
  32 O32            8.3336    -3.5549    -2.3567 O.2     
  33 C33            1.6956     3.2790     0.0035 C.3     
  34 C34           -1.1655     2.1992     0.0197 C.ar    
  35 C35           -2.3031     1.7947    -0.6658 C.ar    
  36 C36           -3.4336     2.5878    -0.6544 C.ar    
  37 C37           -3.4331     3.7858     0.0403 C.ar    
  38 C38           -2.2994     4.1909     0.7247 C.ar    
  39 C39           -1.1687     3.3980     0.7200 C.ar    
  40 F40           -4.5399     4.5605     0.0499 F       
  41 H41            1.5727    -1.4383    -0.0204 H       
  42 H42            3.7468    -1.2709    -0.0398 H       
  43 H43            6.0471     0.0962    -0.9433 H       
  44 H44            6.0632     0.0865     0.8366 H       
  45 H45            5.8555    -2.3844     0.8251 H       
  46 H46            5.8394    -2.3747    -0.9548 H       
  47 H47            8.0922    -1.3388    -0.9696 H       
  48 H48            8.1083    -1.3485     0.8103 H       
  49 H49            4.8879   -10.0956    -1.5510 H       
  50 H50            4.2591    -9.8362    -3.2095 H       
  51 H51            9.1163    -9.2975    -2.7476 H       
  52 H52            6.0717    -5.8106    -1.0498 H       
  53 H53           11.1253    -5.3811    -0.6091 H       
  54 H54           10.5240    -5.0780    -2.2732 H       
  55 H55            9.6352    -7.1472     1.4233 H       
  56 H56            9.4383    -6.5308     3.8011 H       
  57 H57            8.6450    -4.2857     4.4260 H       
  58 H58            8.0491    -2.6566     2.6890 H       
  59 H59            1.8120     3.6208     1.0319 H       
  60 H60            2.6480     3.3678    -0.5190 H       
  61 H61            0.9466     3.8903    -0.4999 H       
  62 H62           -2.3037     0.8607    -1.2080 H       
  63 H63           -4.3186     2.2737    -1.1879 H       
  64 H64           -2.3009     5.1255     1.2659 H       
  65 H65           -0.2861     3.7123     1.2572 H       
@<TRIPOS>BOND
   1    1    2 1
   2    1    5 1
   3    1   34 1
   4    2    3 2
   5    3    4 1
   6    3   41 1
   7    4    5 2
   8    4    6 1
   9    5   33 1
  10    6    7 2
  11    6    8 am
  12    8    9 1
  13    8   42 1
  14    9   10 1
  15    9   43 1
  16    9   44 1
  17   10   11 1
  18   10   45 1
  19   10   46 1
  20   11   24 1
  21   11   47 1
  22   11   48 1
  23   12   13 1
  24   12   16 1
  25   13   14 1
  26   13   49 1
  27   13   50 1
  28   14   15 1
  29   15   16 ar
  30   15   17 ar
  31   16   20 ar
  32   17   18 ar
  33   17   51 1
  34   18   19 ar
  35   18   21 1
  36   19   20 ar
  37   19   22 1
  38   20   52 1
  39   21   23 1
  40   22   23 1
  41   22   25 1
  42   22   26 1
  43   23   53 1
  44   23   54 1
  45   24   25 am
  46   24   31 1
  47   25   32 2
  48   26   27 ar
  49   26   31 ar
  50   27   28 ar
  51   27   55 1
  52   28   29 ar
  53   28   56 1
  54   29   30 ar
  55   29   57 1
  56   30   31 ar
  57   30   58 1
  58   33   59 1
  59   33   60 1
  60   33   61 1
  61   34   35 ar
  62   34   39 ar
  63   35   36 ar
  64   35   62 1
  65   36   37 ar
  66   36   63 1
  67   37   38 ar
  68   37   40 1
  69   38   39 ar
  70   38   64 1
  71   39   65 1

#	End of record

