#	Name: ASD02198496
#	Creating user name:	WinNT
#	Creation time:	15. 06. 2019 20:19

#	Modifying user name:	WinNT
#	Modification time:	15. 06. 2019 20:19

#	Program:	/corina/corina34_cracker 3.40 0067  02.08.2006

@<TRIPOS>MOLECULE
ASD02198496
  40   42    0    0    0
SMALL
NO_CHARGES


@<TRIPOS>ATOM
   1 C1            -0.1320     1.1220    -0.1669 C.2     
   2 C2             0.1028    -0.1995    -0.3645 C.2     
   3 N3             1.3631    -0.6897    -0.3471 N.pl3   
   4 N4             2.3991     0.0385    -0.1481 N.2     
   5 C5             2.3132     1.3348     0.0569 C.2     
   6 C6             0.9830     1.9651     0.0570 C.2     
   7 C7             1.5453    -2.0607    -0.5564 C.ar    
   8 C8             0.6385    -4.2739    -0.7310 C.ar    
   9 C9             1.9058    -4.7729    -0.9694 C.ar    
  10 C10            2.9944    -3.9200    -0.9966 C.ar    
  11 C11            2.8181    -2.5661    -0.7909 C.ar    
  12 C12            3.5291     2.1432     0.2834 C.2     
  13 N13            4.7678     1.6708     0.6039 N.pl3   
  14 N14            5.6260     2.7706     0.7271 N.2     
  15 C15            4.9451     3.8635     0.4932 C.2     
  16 C16            3.6259     3.5148     0.2047 C.2     
  17 C17            5.1347     0.2644     0.7873 C.3     
  18 O18            0.8470     3.1652     0.2420 O.2     
  19 C19            0.4550    -2.9206    -0.5245 C.ar    
  20 C20           -0.5447    -5.2068    -0.7028 C.3     
  21 F21           -0.1124    -6.5156    -0.9423 F       
  22 F22           -1.1604    -5.1413     0.5517 F       
  23 F23           -1.4597    -4.8297    -1.6916 F       
  24 C24            6.0817    -0.1661    -0.3347 C.3     
  25 C25            5.8323     0.0913     2.1379 C.3     
  26 H26           -1.1365     1.5186    -0.1843 H       
  27 H27           -0.7271    -0.8685    -0.5375 H       
  28 H28            2.0460    -5.8310    -1.1343 H       
  29 H29            3.9830    -4.3130    -1.1830 H       
  30 H30            3.6685    -1.9007    -0.8126 H       
  31 H31            5.3403     4.8684     0.5154 H       
  32 H32            2.8231     4.1979    -0.0306 H       
  33 H33            4.2361    -0.3520     0.7608 H       
  34 H34           -0.5351    -2.5316    -0.3380 H       
  35 H35            6.9803     0.4503    -0.3082 H       
  36 H36            6.3547    -1.2125    -0.1983 H       
  37 H37            5.5847    -0.0427    -1.2969 H       
  38 H38            5.1577     0.3980     2.9373 H       
  39 H39            6.1053    -0.9551     2.2744 H       
  40 H40            6.7309     0.7077     2.1644 H       
@<TRIPOS>BOND
   1    1    2 2
   2    1    6 1
   3    1   26 1
   4    2    3 1
   5    2   27 1
   6    3    4 1
   7    3    7 1
   8    4    5 2
   9    5    6 1
  10    5   12 1
  11    6   18 2
  12    7   19 ar
  13    7   11 ar
  14    8    9 ar
  15    8   20 1
  16    8   19 ar
  17    9   10 ar
  18    9   28 1
  19   10   11 ar
  20   10   29 1
  21   11   30 1
  22   12   13 1
  23   12   16 2
  24   13   14 1
  25   13   17 1
  26   14   15 2
  27   15   16 1
  28   15   31 1
  29   16   32 1
  30   17   24 1
  31   17   25 1
  32   17   33 1
  33   19   34 1
  34   20   21 1
  35   20   22 1
  36   20   23 1
  37   24   35 1
  38   24   36 1
  39   24   37 1
  40   25   38 1
  41   25   39 1
  42   25   40 1

#	End of record

