#	Name: ASD08780013
#	Creating user name:	WinNT
#	Creation time:	15. 06. 2019 21:19

#	Modifying user name:	WinNT
#	Modification time:	15. 06. 2019 21:19

#	Program:	/corina/corina34_cracker 3.40 0067  02.08.2006

@<TRIPOS>MOLECULE
ASD08780013
  19   19    0    0    0
SMALL
NO_CHARGES


@<TRIPOS>ATOM
   1 C1            -0.0184     1.5028     0.0103 C.2     
   2 C2             0.0021    -0.0041     0.0020 C.3     
   3 S3             2.8180     1.5371    -0.0172 S.3     
   4 C4             3.4970     3.1056    -0.0148 C.2     
   5 N5             2.5664     4.0058    -0.0006 N.2     
   6 C6             1.3259     3.5921     0.0092 C.2     
   7 C7             1.1963     2.2263     0.0026 C.2     
   8 C8             0.1464     4.5299     0.0269 C.3     
   9 C9             4.9748     3.4003    -0.0276 C.3     
  10 Br10          -1.8423    -0.6846     0.0160 Br      
  11 O11           -1.0781     2.0955     0.0186 O.2     
  12 H12            0.5123    -0.3556    -0.8948 H       
  13 H13            0.5293    -0.3651     0.8851 H       
  14 H14           -0.1485     4.7622    -0.9965 H       
  15 H15           -0.6866     4.0563     0.5464 H       
  16 H16            0.4212     5.4496     0.5434 H       
  17 H17            5.3211     3.4772    -1.0582 H       
  18 H18            5.1622     4.3412     0.4899 H       
  19 H19            5.5101     2.5956     0.4764 H       
@<TRIPOS>BOND
   1    1    2 1
   2    1    7 1
   3    1   11 2
   4    2   10 1
   5    2   12 1
   6    2   13 1
   7    3    4 1
   8    3    7 1
   9    4    5 2
  10    4    9 1
  11    5    6 1
  12    6    7 2
  13    6    8 1
  14    8   14 1
  15    8   15 1
  16    8   16 1
  17    9   17 1
  18    9   18 1
  19    9   19 1

#	End of record

