#	Name: ASD01900516
#	Creating user name:	WinNT
#	Creation time:	15. 06. 2019 19:52

#	Modifying user name:	WinNT
#	Modification time:	15. 06. 2019 19:52

#	Program:	/corina/corina34_cracker 3.40 0067  02.08.2006

@<TRIPOS>MOLECULE
ASD01900516
  28   31    0    0    0
SMALL
NO_CHARGES


@<TRIPOS>ATOM
   1 C1            -0.0157     1.5188    -0.5780 C.ar    
   2 C2             0.0515     0.4051    -1.4281 C.ar    
   3 C3             1.2627    -0.2675    -1.5662 C.ar    
   4 C4             2.3539     0.1952    -0.8542 C.ar    
   5 C5             2.2141     1.3036    -0.0314 C.ar    
   6 N6             1.0613     1.9246     0.0850 N.ar    
   7 O7            -1.1740     0.2277    -1.9594 O.3     
   8 N8            -2.0500     1.2199    -1.4633 N.2     
   9 C9            -1.4066     1.9996    -0.6398 C.2     
  10 N10           -1.9329     3.0869     0.0451 N.pl3   
  11 O11           -7.2821     4.4213    -0.1969 O.3     
  12 C12           -7.1083     5.8319    -0.4271 C.3     
  13 O13           -5.8072     6.1106     0.1229 O.3     
  14 C14           -5.1137     4.9384     0.0314 C.ar    
  15 C15           -6.0202     3.8989    -0.1653 C.ar    
  16 C16           -5.5634     2.5973    -0.2903 C.ar    
  17 C17           -4.2095     2.3277    -0.2210 C.ar    
  18 C18           -3.3036     3.3613    -0.0250 C.ar    
  19 C19           -3.7577     4.6677     0.1011 C.ar    
  20 H20            1.3476    -1.1286    -2.2125 H       
  21 H21            3.3084    -0.3031    -0.9376 H       
  22 H22            3.0681     1.6628     0.5236 H       
  23 H23           -1.3506     3.6562     0.5720 H       
  24 H24           -7.1277     6.0509    -1.4947 H       
  25 H25           -7.8755     6.4028     0.0960 H       
  26 H26           -6.2664     1.7917    -0.4425 H       
  27 H27           -3.8561     1.3118    -0.3184 H       
  28 H28           -3.0533     5.4721     0.2532 H       
@<TRIPOS>BOND
   1    1    2 ar
   2    1    6 ar
   3    1    9 1
   4    2    3 ar
   5    2    7 1
   6    3    4 ar
   7    3   20 1
   8    4    5 ar
   9    4   21 1
  10    5    6 ar
  11    5   22 1
  12    7    8 1
  13    8    9 2
  14    9   10 1
  15   10   18 1
  16   10   23 1
  17   11   12 1
  18   11   15 1
  19   12   13 1
  20   12   24 1
  21   12   25 1
  22   13   14 1
  23   14   15 ar
  24   14   19 ar
  25   15   16 ar
  26   16   17 ar
  27   16   26 1
  28   17   18 ar
  29   17   27 1
  30   18   19 ar
  31   19   28 1

#	End of record

