#	Name: ASD01915796
#	Creating user name:	WinNT
#	Creation time:	15. 06. 2019 20:06

#	Modifying user name:	WinNT
#	Modification time:	15. 06. 2019 20:06

#	Program:	/corina/corina34_cracker 3.40 0067  02.08.2006

@<TRIPOS>MOLECULE
ASD01915796
  44   47    0    0    0
SMALL
NO_CHARGES


@<TRIPOS>ATOM
   1 C1            -0.0042     1.4684     0.2344 C.2     
   2 N2             0.0661     0.1189    -0.0301 N.pl3   
   3 C3            -1.1431    -0.6639    -0.3125 C.3     
   4 C4            -2.3281    -0.0486     0.4300 C.3     
   5 N5            -2.4044     1.3988     0.2637 N.am    
   6 C6            -1.2934     2.1742     0.2858 C.2     
   7 C7             1.2764     1.9057     0.4251 C.2     
   8 C8             2.0758     0.7647     0.2731 C.2     
   9 N9             1.2863    -0.2507     0.0108 N.2     
  10 C10            3.5773     0.7127     0.3903 C.3     
  11 O11            4.0777     2.0185     0.6841 O.3     
  12 C12            5.4236     2.1467     0.8228 C.ar    
  13 O13           -1.3588     3.3874     0.3449 O.2     
  14 C14            5.9777     3.3861     1.1084 C.ar    
  15 C15            6.2451     1.0374     0.6847 C.ar    
  16 C16            7.6129     1.1704     0.8261 C.ar    
  17 C17            8.1632     2.4078     1.1050 C.ar    
  18 C18            7.3460     3.5138     1.2488 C.ar    
  19 C19           -3.6531     1.9998     0.0771 C.ar    
  20 C20           -3.9659     2.5900    -1.1400 C.ar    
  21 C21           -4.5851     2.0025     1.1074 C.ar    
  22 C22           -5.8177     2.5966     0.9213 C.ar    
  23 C23           -6.1263     3.1887    -0.2894 C.ar    
  24 C24           -5.2023     3.1838    -1.3210 C.ar    
  25 C25           -6.8282     2.5991     2.0394 C.3     
  26 F26           -5.5064     3.7635    -2.5028 F       
  27 H27           -1.3407    -0.6544    -1.3844 H       
  28 H28           -0.9979    -1.6911     0.0221 H       
  29 H29           -3.2490    -0.4952     0.0551 H       
  30 H30           -2.2353    -0.2766     1.4918 H       
  31 H31            1.6016     2.9118     0.6448 H       
  32 H32            3.8557     0.0281     1.1915 H       
  33 H33            4.0033     0.3635    -0.5503 H       
  34 H34            5.3399     4.2504     1.2204 H       
  35 H35            5.8157     0.0706     0.4671 H       
  36 H36            8.2528     0.3070     0.7190 H       
  37 H37            9.2327     2.5097     1.2152 H       
  38 H38            7.7783     4.4794     1.4664 H       
  39 H39           -3.2450     2.5859    -1.9442 H       
  40 H40           -4.3458     1.5397     2.0535 H       
  41 H41           -7.0914     3.6520    -0.4324 H       
  42 H42           -6.6930     3.4923     2.6493 H       
  43 H43           -7.8342     2.5945     1.6199 H       
  44 H44           -6.6882     1.7124     2.6576 H       
@<TRIPOS>BOND
   1    1    2 1
   2    1    7 2
   3    1    6 1
   4    2    3 1
   5    2    9 1
   6    3    4 1
   7    3   27 1
   8    3   28 1
   9    4    5 1
  10    4   29 1
  11    4   30 1
  12    5    6 am
  13    5   19 1
  14    6   13 2
  15    7    8 1
  16    7   31 1
  17    8    9 2
  18    8   10 1
  19   10   11 1
  20   10   32 1
  21   10   33 1
  22   11   12 1
  23   12   14 ar
  24   12   15 ar
  25   14   18 ar
  26   14   34 1
  27   15   16 ar
  28   15   35 1
  29   16   17 ar
  30   16   36 1
  31   17   18 ar
  32   17   37 1
  33   18   38 1
  34   19   21 ar
  35   19   20 ar
  36   20   24 ar
  37   20   39 1
  38   21   22 ar
  39   21   40 1
  40   22   23 ar
  41   22   25 1
  42   23   24 ar
  43   23   41 1
  44   24   26 1
  45   25   42 1
  46   25   43 1
  47   25   44 1

#	End of record

