#	Name: ASD01881473
#	Creating user name:	WinNT
#	Creation time:	15. 06. 2019 19:42

#	Modifying user name:	WinNT
#	Modification time:	15. 06. 2019 19:42

#	Program:	/corina/corina34_cracker 3.40 0067  02.08.2006

@<TRIPOS>MOLECULE
ASD01881473
  50   54    0    0    0
SMALL
NO_CHARGES


@<TRIPOS>ATOM
   1 C1            -0.0170     1.4023     0.0098 C.2     
   2 C2             0.0021    -0.0041     0.0020 C.2     
   3 C3             1.2207    -0.6577    -0.0131 C.2     
   4 C4             2.4157     0.1021    -0.0205 C.2     
   5 C5             2.3639     1.4472    -0.0123 C.2     
   6 N6             1.1655     2.1016     0.0022 N.pl3   
   7 N7            -0.4879     3.4812     0.0230 N.2     
   8 N8            -0.9925     2.2976     0.0186 N.2     
   9 C9             0.8188     3.4178     0.0126 C.2     
  10 C10            1.2755    -2.1386    -0.0211 C.ar    
  11 C11            1.8000    -2.8137    -1.1228 C.ar    
  12 C12            1.8489    -4.1927    -1.1242 C.ar    
  13 C13            1.3787    -4.9054    -0.0357 C.ar    
  14 C14            0.8572    -4.2412     1.0601 C.ar    
  15 C15            0.8080    -2.8623     1.0754 C.ar    
  16 C16            1.4344    -6.4113    -0.0438 C.3     
  17 N17            2.7128    -6.8571     0.5264 N.3     
  18 C18            2.7099    -8.3094     0.7547 C.3     
  19 C19            4.0778    -8.7388     1.2918 C.3     
  20 O20            4.3684    -8.0039     2.4838 O.3     
  21 C21            4.3799    -6.5860     2.2976 C.3     
  22 C22            3.0151    -6.1348     1.7707 C.3     
  23 C23            1.7674     4.5888     0.0098 C.3     
  24 C24            2.0746     4.9929    -1.4335 C.3     
  25 C25            2.9312     6.2419    -1.6504 C.3     
  26 C26            3.5209     4.8548    -1.9132 C.3     
  27 Cl27          -1.4815    -0.9056     0.0119 Cl      
  28 H28            3.3721    -0.3994    -0.0323 H       
  29 H29            3.2820     2.0160    -0.0173 H       
  30 H30            2.1670    -2.2584    -1.9733 H       
  31 H31            2.2546    -4.7167    -1.9770 H       
  32 H32            0.4913    -4.8029     1.9069 H       
  33 H33            0.4047    -2.3447     1.9332 H       
  34 H34            0.6126    -6.8086     0.5520 H       
  35 H35            1.3480    -6.7726    -1.0685 H       
  36 H36            1.9379    -8.5621     1.4814 H       
  37 H37            2.5095    -8.8251    -0.1845 H       
  38 H38            4.0622    -9.8053     1.5164 H       
  39 H39            4.8432    -8.5351     0.5429 H       
  40 H40            4.5828    -6.0955     3.2496 H       
  41 H41            5.1541    -6.3197     1.5780 H       
  42 H42            3.0374    -5.0631     1.5731 H       
  43 H43            2.2479    -6.3528     2.5136 H       
  44 H44            1.3095     5.4286     0.5326 H       
  45 H45            2.6925     4.3082     0.5133 H       
  46 H46            1.2832     4.7937    -2.1561 H       
  47 H47            2.7036     6.8642    -2.5158 H       
  48 H48            3.2759     6.7758    -0.7648 H       
  49 H49            4.2535     4.4761    -1.2005 H       
  50 H50            3.6812     4.5645    -2.9515 H       
@<TRIPOS>BOND
   1    1    2 1
   2    1    6 1
   3    1    8 2
   4    2    3 2
   5    2   27 1
   6    3    4 1
   7    3   10 1
   8    4    5 2
   9    4   28 1
  10    5    6 1
  11    5   29 1
  12    6    9 1
  13    7    8 1
  14    7    9 2
  15    9   23 1
  16   10   11 ar
  17   10   15 ar
  18   11   12 ar
  19   11   30 1
  20   12   13 ar
  21   12   31 1
  22   13   14 ar
  23   13   16 1
  24   14   15 ar
  25   14   32 1
  26   15   33 1
  27   16   17 1
  28   16   34 1
  29   16   35 1
  30   17   18 1
  31   17   22 1
  32   18   19 1
  33   18   36 1
  34   18   37 1
  35   19   20 1
  36   19   38 1
  37   19   39 1
  38   20   21 1
  39   21   22 1
  40   21   40 1
  41   21   41 1
  42   22   42 1
  43   22   43 1
  44   23   24 1
  45   23   44 1
  46   23   45 1
  47   24   25 1
  48   24   26 1
  49   24   46 1
  50   25   26 1
  51   25   47 1
  52   25   48 1
  53   26   49 1
  54   26   50 1

#	End of record

