#	Name: ASD03090666
#	Creating user name:	WinNT
#	Creation time:	15. 06. 2019 20:29

#	Modifying user name:	WinNT
#	Modification time:	15. 06. 2019 20:29

#	Program:	/corina/corina34_cracker 3.40 0067  02.08.2006

@<TRIPOS>MOLECULE
ASD03090666
  34   35    0    0    0
SMALL
NO_CHARGES


@<TRIPOS>ATOM
   1 N1            -0.0162     1.3436     0.0094 N.am    
   2 C2            -0.2043     0.1128    -0.5067 C.2     
   3 O3             0.6901    -0.4298    -1.1262 O.2     
   4 N4            -1.3839    -0.5164    -0.3362 N.am    
   5 O5            -0.6911    -2.5060    -1.5699 O.3     
   6 N6            -1.1525    -3.5740    -1.8989 N.2     
   7 C7            -2.3778    -3.7222    -1.4798 C.2     
   8 C8            -2.7080    -2.5437    -0.7810 C.2     
   9 C9            -1.5775    -1.7829    -0.8674 C.2     
  10 C10           -3.2670    -4.9189    -1.6996 C.3     
  11 F11           -2.5404    -5.9285    -2.3397 F       
  12 F12           -3.7304    -5.3883    -0.4659 F       
  13 F13           -4.3558    -4.5506    -2.4972 F       
  14 C14            1.2464     1.9477    -0.0614 C.ar    
  15 C15            1.3526     3.3292    -0.2082 C.ar    
  16 C16            2.6029     3.9208    -0.2777 C.ar    
  17 C17            3.7424     3.1408    -0.2014 C.ar    
  18 C18            3.6379     1.7702    -0.0558 C.ar    
  19 C19            2.3935     1.1727     0.0201 C.ar    
  20 O20            0.2312     4.0947    -0.2835 O.3     
  21 C21            0.4165     5.5037    -0.4336 C.3     
  22 C22           -0.9477     6.1932    -0.4996 C.3     
  23 H23           -0.7557     1.8128     0.4264 H       
  24 H24           -2.0975    -0.0834     0.1580 H       
  25 H25           -3.6390    -2.2991    -0.2912 H       
  26 H26            2.6881     4.9913    -0.3918 H       
  27 H27            4.7166     3.6038    -0.2562 H       
  28 H28            4.5305     1.1651     0.0030 H       
  29 H29            2.3147     0.1021     0.1384 H       
  30 H30            0.9776     5.8891     0.4177 H       
  31 H31            0.9685     5.7017    -1.3524 H       
  32 H32           -0.8064     7.2680    -0.6141 H       
  33 H33           -1.5089     5.8078    -1.3509 H       
  34 H34           -1.4998     5.9952     0.4191 H       
@<TRIPOS>BOND
   1    1    2 am
   2    1   14 1
   3    1   23 1
   4    2    3 2
   5    2    4 am
   6    4    9 1
   7    4   24 1
   8    5    6 1
   9    5    9 1
  10    6    7 2
  11    7    8 1
  12    7   10 1
  13    8    9 2
  14    8   25 1
  15   10   11 1
  16   10   12 1
  17   10   13 1
  18   14   15 ar
  19   14   19 ar
  20   15   16 ar
  21   15   20 1
  22   16   17 ar
  23   16   26 1
  24   17   18 ar
  25   17   27 1
  26   18   19 ar
  27   18   28 1
  28   19   29 1
  29   20   21 1
  30   21   22 1
  31   21   30 1
  32   21   31 1
  33   22   32 1
  34   22   33 1
  35   22   34 1

#	End of record

