#	Name: ASD03092625
#	Creating user name:	WinNT
#	Creation time:	15. 06. 2019 20:32

#	Modifying user name:	WinNT
#	Modification time:	15. 06. 2019 20:32

#	Program:	/corina/corina34_cracker 3.40 0067  02.08.2006

@<TRIPOS>MOLECULE
ASD03092625
  33   35    0    0    0
SMALL
NO_CHARGES


@<TRIPOS>ATOM
   1 S1            -0.0191     1.5588     0.0106 S.3     
   2 N2             0.0021    -0.0041     0.0020 N.2     
   3 C3             1.2225    -0.4387    -0.0120 C.2     
   4 C4             2.2376     0.4899    -0.0167 C.2     
   5 C5             1.7376     1.7802    -0.0050 C.2     
   6 C6             2.4912     3.0435    -0.0058 C.2     
   7 O7             3.7073     3.0262    -0.0179 O.2     
   8 N8             1.8341     4.2202     0.0068 N.am    
   9 C9             1.5209    -1.9158    -0.0223 C.3     
  10 C10            2.5846     5.4783     0.0060 C.3     
  11 N11           -1.0084     9.8059     0.3266 N.pl3   
  12 C12           -1.0938     9.9157     1.7004 C.2     
  13 C13           -0.3044     8.9689     2.2732 C.2     
  14 C14            0.3063     8.2286     1.2316 C.ar    
  15 C15            1.2016     7.1514     1.2139 C.ar    
  16 C16            1.6218     6.6376     0.0216 C.ar    
  17 C17            1.1706     7.1735    -1.1779 C.ar    
  18 C18            0.2910     8.2331    -1.1864 C.ar    
  19 C19           -0.1522     8.7741     0.0168 C.ar    
  20 C20           -1.8869    10.8748     2.4087 C.1     
  21 N21           -2.5161    11.6356     2.9706 N.1     
  22 H22            3.2891     0.2436    -0.0277 H       
  23 H23            0.8642     4.2340     0.0165 H       
  24 H24            1.5833    -2.2667    -1.0523 H       
  25 H25            2.4699    -2.0983     0.4819 H       
  26 H26            0.7253    -2.4508     0.4962 H       
  27 H27            3.2207     5.5225     0.8900 H       
  28 H28            3.2032     5.5318    -0.8899 H       
  29 H29           -1.4780    10.3619    -0.3146 H       
  30 H30           -0.1673     8.8098     3.3326 H       
  31 H31            1.5584     6.7286     2.1415 H       
  32 H32            1.5132     6.7554    -2.1129 H       
  33 H33           -0.0535     8.6434    -2.1242 H       
@<TRIPOS>BOND
   1    1    2 1
   2    1    5 1
   3    2    3 2
   4    3    4 1
   5    3    9 1
   6    4    5 2
   7    4   22 1
   8    5    6 1
   9    6    7 2
  10    6    8 am
  11    8   10 1
  12    8   23 1
  13    9   24 1
  14    9   25 1
  15    9   26 1
  16   10   16 1
  17   10   27 1
  18   10   28 1
  19   11   12 1
  20   11   19 1
  21   11   29 1
  22   12   13 2
  23   12   20 1
  24   13   14 1
  25   13   30 1
  26   14   15 ar
  27   14   19 ar
  28   15   16 ar
  29   15   31 1
  30   16   17 ar
  31   17   18 ar
  32   17   32 1
  33   18   19 ar
  34   18   33 1
  35   20   21 3

#	End of record

