#	Name: ASD09610008
#	Creating user name:	WinNT
#	Creation time:	15. 06. 2019 21:22

#	Modifying user name:	WinNT
#	Modification time:	15. 06. 2019 21:22

#	Program:	/corina/corina34_cracker 3.40 0067  02.08.2006

@<TRIPOS>MOLECULE
ASD09610008
  32   33    0    0    0
SMALL
NO_CHARGES


@<TRIPOS>ATOM
   1 O1            -0.0171     1.4097     0.0098 O.3     
   2 N2             0.0021    -0.0041     0.0020 N.2     
   3 C3             1.1394    -0.4884    -0.3689 C.2     
   4 C4             2.0754     0.6682    -0.6640 C.3     
   5 C5             1.3514     1.8642    -0.0008 C.3     
   6 C6             1.4721    -1.9204    -0.4850 C.2     
   7 O7             2.5816    -2.2589    -0.8456 O.2     
   8 O8             0.5453    -2.8534    -0.1912 O.3     
   9 C9             1.5010     3.1314    -0.8450 C.3     
  10 C10            0.7605     4.2655    -0.1844 C.ar    
  11 C11            1.3772     5.0112     0.8049 C.ar    
  12 C12            0.6974     6.0520     1.4111 C.ar    
  13 C13           -0.5989     6.3469     1.0281 C.ar    
  14 C14           -1.2144     5.6008     0.0391 C.ar    
  15 C15           -0.5324     4.5642    -0.5705 C.ar    
  16 Cl16          -1.4531     7.6528     1.7889 Cl      
  17 Cl17           3.0036     4.6400     1.2852 Cl      
  18 C18            0.9427    -4.2433    -0.3279 C.3     
  19 C19           -0.2324    -5.1489     0.0463 C.3     
  20 H20            3.0504     0.5036    -0.2055 H       
  21 H21            2.1729     0.8225    -1.7386 H       
  22 H22            1.7162     2.0275     1.0133 H       
  23 H23            2.5569     3.3882    -0.9310 H       
  24 H24            1.0874     2.9572    -1.8384 H       
  25 H25            1.1782     6.6340     2.1835 H       
  26 H26           -2.2264     5.8307    -0.2597 H       
  27 H27           -1.0116     3.9850    -1.3459 H       
  28 H28            1.2367    -4.4373    -1.3595 H       
  29 H29            1.7840    -4.4475     0.3342 H       
  30 H30           -0.5264    -4.9549     1.0778 H       
  31 H31           -1.0737    -4.9447    -0.6159 H       
  32 H32            0.0659    -6.1922    -0.0564 H       
@<TRIPOS>BOND
   1    1    2 1
   2    1    5 1
   3    2    3 2
   4    3    4 1
   5    3    6 1
   6    4    5 1
   7    4   20 1
   8    4   21 1
   9    5    9 1
  10    5   22 1
  11    6    7 2
  12    6    8 1
  13    8   18 1
  14    9   10 1
  15    9   23 1
  16    9   24 1
  17   10   11 ar
  18   10   15 ar
  19   11   12 ar
  20   11   17 1
  21   12   13 ar
  22   12   25 1
  23   13   14 ar
  24   13   16 1
  25   14   15 ar
  26   14   26 1
  27   15   27 1
  28   18   19 1
  29   18   28 1
  30   18   29 1
  31   19   30 1
  32   19   31 1
  33   19   32 1

#	End of record

