#	Name: ASD01884098
#	Creating user name:	WinNT
#	Creation time:	15. 06. 2019 19:47

#	Modifying user name:	WinNT
#	Modification time:	15. 06. 2019 19:47

#	Program:	/corina/corina34_cracker 3.40 0067  02.08.2006

@<TRIPOS>MOLECULE
ASD01884098
  44   47    0    0    0
SMALL
NO_CHARGES


@<TRIPOS>ATOM
   1 F1             3.4446     4.3588     0.4160 F       
   2 C2             4.4329     4.0209     1.2728 C.ar    
   3 C3             5.0706     4.9999     2.0155 C.ar    
   4 C4             6.0817     4.6538     2.8921 C.ar    
   5 C5             6.4568     3.3306     3.0278 C.ar    
   6 C6             5.8205     2.3506     2.2862 C.ar    
   7 Cl7            6.2921     0.6888     2.4578 Cl      
   8 C8             4.8048     2.6945     1.4130 C.ar    
   9 C9             4.1073     1.6270     0.6099 C.3     
  10 C10            4.8413     1.4262    -0.7175 C.3     
  11 O11            4.1799     0.4140    -1.4791 O.3     
  12 C12            4.6441     0.1848    -2.7340 C.2     
  13 C13            5.9383    -0.3413    -2.9264 C.2     
  14 C14            6.4011    -0.5701    -4.1715 C.2     
  15 N15            5.6270    -0.2965    -5.2609 N.pl3   
  16 C16            5.8187    -0.4193    -6.6051 C.2     
  17 C17            7.0586    -0.9407    -7.2846 C.3     
  18 C18            6.9406    -2.4550    -7.4690 C.3     
  19 C19            6.9070    -2.9918    -8.9013 C.3     
  20 C20            8.1536    -3.1941    -8.0375 C.3     
  21 N21            4.7302    -0.0025    -7.1968 N.2     
  22 N22            3.8634     0.3753    -6.3242 N.2     
  23 C23            4.3621     0.2166    -5.1080 C.2     
  24 C24            3.8580     0.4573    -3.8177 C.2     
  25 C25            2.4699     1.0140    -3.6326 C.3     
  26 F26            2.1572     1.0435    -2.2693 F       
  27 F27            2.4149     2.3119    -4.1518 F       
  28 F28            1.5488     0.2034    -4.3048 F       
  29 H29            4.7782     6.0342     1.9097 H       
  30 H30            6.5792     5.4178     3.4710 H       
  31 H31            7.2472     3.0612     3.7127 H       
  32 H32            4.1077     0.6922     1.1703 H       
  33 H33            3.0796     1.9329     0.4141 H       
  34 H34            4.8409     2.3610    -1.2780 H       
  35 H35            5.8690     1.1203    -0.5217 H       
  36 H36            6.5615    -0.5616    -2.0723 H       
  37 H37            7.3937    -0.9732    -4.3079 H       
  38 H38            7.1672    -0.4635    -8.2585 H       
  39 H39            7.9309    -0.7164    -6.6707 H       
  40 H40            6.3394    -2.9741    -6.7224 H       
  41 H41            6.2836    -3.8641    -9.0974 H       
  42 H42            6.9691    -2.2661    -9.7123 H       
  43 H43            9.0357    -2.6016    -8.2802 H       
  44 H44            8.3502    -4.1995    -7.6654 H       
@<TRIPOS>BOND
   1    1    2 1
   2    2    8 ar
   3    2    3 ar
   4    3    4 ar
   5    3   29 1
   6    4    5 ar
   7    4   30 1
   8    5    6 ar
   9    5   31 1
  10    6    7 1
  11    6    8 ar
  12    8    9 1
  13    9   10 1
  14    9   32 1
  15    9   33 1
  16   10   11 1
  17   10   34 1
  18   10   35 1
  19   11   12 1
  20   12   24 2
  21   12   13 1
  22   13   14 2
  23   13   36 1
  24   14   15 1
  25   14   37 1
  26   15   23 1
  27   15   16 1
  28   16   17 1
  29   16   21 2
  30   17   18 1
  31   17   38 1
  32   17   39 1
  33   18   20 1
  34   18   19 1
  35   18   40 1
  36   19   20 1
  37   19   41 1
  38   19   42 1
  39   20   43 1
  40   20   44 1
  41   21   22 1
  42   22   23 2
  43   23   24 1
  44   24   25 1
  45   25   26 1
  46   25   27 1
  47   25   28 1

#	End of record

