#	Name: ASD01911881
#	Creating user name:	WinNT
#	Creation time:	15. 06. 2019 19:58

#	Modifying user name:	WinNT
#	Modification time:	15. 06. 2019 19:58

#	Program:	/corina/corina34_cracker 3.40 0067  02.08.2006

@<TRIPOS>MOLECULE
ASD01911881
  36   38    0    0    0
SMALL
NO_CHARGES


@<TRIPOS>ATOM
   1 C1            -1.0603    -0.5023    -2.0830 C.ar    
   2 C2            -1.0559     0.0560    -0.8082 C.ar    
   3 C3            -1.0046     1.4361    -0.6775 C.ar    
   4 N4            -0.9610     2.2116    -1.7427 N.ar    
   5 C5            -0.9637     1.7148    -2.9640 C.ar    
   6 C6            -1.0129     0.3492    -3.1747 C.ar    
   7 O7            -1.1017    -0.7394     0.2927 O.3     
   8 C8            -1.1522    -2.0845     0.1062 C.ar    
   9 C9            -0.0017    -2.7820    -0.2363 C.ar    
  10 C10           -0.0516    -4.1496    -0.4261 C.ar    
  11 C11           -1.2460    -4.8276    -0.2754 C.ar    
  12 C12           -2.4003    -4.1351     0.0677 C.ar    
  13 C13           -2.3512    -2.7618     0.2635 C.ar    
  14 N14           -3.6092    -4.8214     0.2203 N.am    
  15 C15           -4.7717    -4.2171    -0.0958 C.2     
  16 C16           -6.0540    -4.9021     0.1627 C.ar    
  17 O17           -4.7645    -3.1079    -0.5936 O.2     
  18 C18           -6.0662    -6.1760     0.7343 C.ar    
  19 C19           -7.2683    -6.8103     0.9736 C.ar    
  20 C20           -8.4618    -6.1870     0.6483 C.ar    
  21 C21           -8.4590    -4.9259     0.0821 C.ar    
  22 C22           -7.2626    -4.2757    -0.1586 C.ar    
  23 F23           -7.2608    -3.0432    -0.7120 F       
  24 Cl24          -7.2846    -8.3944     1.6837 Cl      
  25 H25           -1.0952    -1.5733    -2.2178 H       
  26 H26           -1.0008     1.8799     0.3072 H       
  27 H27           -0.9273     2.3835    -3.8113 H       
  28 H28           -1.0144    -0.0490    -4.1786 H       
  29 H29            0.9334    -2.2548    -0.3549 H       
  30 H30            0.8447    -4.6897    -0.6933 H       
  31 H31           -1.2822    -5.8966    -0.4247 H       
  32 H32           -3.2472    -2.2210     0.5303 H       
  33 H33           -3.6111    -5.7324     0.5535 H       
  34 H34           -5.1368    -6.6640     0.9883 H       
  35 H35           -9.3991    -6.6888     0.8378 H       
  36 H36           -9.3933    -4.4459    -0.1693 H       
@<TRIPOS>BOND
   1    1    2 ar
   2    1    6 ar
   3    1   25 1
   4    2    3 ar
   5    2    7 1
   6    3    4 ar
   7    3   26 1
   8    4    5 ar
   9    5    6 ar
  10    5   27 1
  11    6   28 1
  12    7    8 1
  13    8    9 ar
  14    8   13 ar
  15    9   10 ar
  16    9   29 1
  17   10   11 ar
  18   10   30 1
  19   11   12 ar
  20   11   31 1
  21   12   13 ar
  22   12   14 1
  23   13   32 1
  24   14   15 am
  25   14   33 1
  26   15   16 1
  27   15   17 2
  28   16   18 ar
  29   16   22 ar
  30   18   19 ar
  31   18   34 1
  32   19   20 ar
  33   19   24 1
  34   20   21 ar
  35   20   35 1
  36   21   22 ar
  37   21   36 1
  38   22   23 1

#	End of record

