#	Name: ASD01148927
#	Creating user name:	WinNT
#	Creation time:	15. 06. 2019 19:03

#	Modifying user name:	WinNT
#	Modification time:	15. 06. 2019 19:03

#	Program:	/corina/corina34_cracker 3.40 0067  02.08.2006

@<TRIPOS>MOLECULE
ASD01148927
  38   40    0    0    0
SMALL
NO_CHARGES


@<TRIPOS>ATOM
   1 C1            -0.0167     1.3786     0.0096 C.ar    
   2 C2             0.0021    -0.0041     0.0020 C.ar    
   3 C3             1.2066    -0.6797    -0.0131 C.ar    
   4 C4             2.3995     0.0308    -0.0206 C.ar    
   5 C5             2.3774     1.4191    -0.0130 C.ar    
   6 C6             1.1696     2.0890     0.0021 C.ar    
   7 S7            -1.5554     2.2369     0.0216 S.o2    
   8 O8            -1.2996     3.5268    -0.5171 O.2     
   9 O9            -2.5172     1.3440    -0.5232 O.2     
  10 N10           -1.9760     2.4671     1.6066 N.am    
  11 N11            3.6231    -0.6518    -0.0355 N.pl3   
  12 C12            4.5439    -0.6258    -1.0549 C.2     
  13 C13            5.5942    -1.4140    -0.6897 C.2     
  14 C14            5.3064    -1.9333     0.5841 C.2     
  15 C15            4.1033    -1.4499     0.9635 C.2     
  16 C16            3.4072    -1.7441     2.2672 C.3     
  17 I17            6.5281    -3.2193     1.6988 I       
  18 I18            7.3192    -1.7840    -1.8196 I       
  19 C19            4.4179     0.1238    -2.3226 C.ar    
  20 C20            5.4992     0.8576    -2.8133 C.ar    
  21 C21            5.3757     1.5548    -3.9971 C.ar    
  22 C22            4.1819     1.5280    -4.6982 C.ar    
  23 C23            3.1055     0.8022    -4.2164 C.ar    
  24 C24            3.2189     0.0960    -3.0369 C.ar    
  25 Cl25           4.0339     2.4084    -6.1871 Cl      
  26 H26           -0.9261    -0.5562     0.0083 H       
  27 H27            1.2206    -1.7596    -0.0187 H       
  28 H28            3.3036     1.9745    -0.0188 H       
  29 H29            1.1518     3.1689     0.0077 H       
  30 H30           -1.3973     2.1423     2.3141 H       
  31 H31           -2.8011     2.9268     1.8276 H       
  32 H32            2.7799    -2.6282     2.1528 H       
  33 H33            4.1508    -1.9242     3.0436 H       
  34 H34            2.7873    -0.8927     2.5484 H       
  35 H35            6.4306     0.8798    -2.2669 H       
  36 H36            6.2116     2.1229    -4.3777 H       
  37 H37            2.1767     0.7857    -4.7673 H       
  38 H38            2.3802    -0.4733    -2.6643 H       
@<TRIPOS>BOND
   1    1    2 ar
   2    1    6 ar
   3    1    7 1
   4    2    3 ar
   5    2   26 1
   6    3    4 ar
   7    3   27 1
   8    4    5 ar
   9    4   11 1
  10    5    6 ar
  11    5   28 1
  12    6   29 1
  13    7    8 2
  14    7    9 2
  15    7   10 am
  16   10   30 1
  17   10   31 1
  18   11   12 1
  19   11   15 1
  20   12   13 2
  21   12   19 1
  22   13   14 1
  23   13   18 1
  24   14   15 2
  25   14   17 1
  26   15   16 1
  27   16   32 1
  28   16   33 1
  29   16   34 1
  30   19   20 ar
  31   19   24 ar
  32   20   21 ar
  33   20   35 1
  34   21   22 ar
  35   21   36 1
  36   22   23 ar
  37   22   25 1
  38   23   24 ar
  39   23   37 1
  40   24   38 1

#	End of record

