#	Name: ASD01940377
#	Creating user name:	WinNT
#	Creation time:	15. 06. 2019 20:12

#	Modifying user name:	WinNT
#	Modification time:	15. 06. 2019 20:12

#	Program:	/corina/corina34_cracker 3.40 0067  02.08.2006

@<TRIPOS>MOLECULE
ASD01940377
  17   15    0    0    0
SMALL
NO_CHARGES


@<TRIPOS>ATOM
   1 C1            -0.0187     1.5258     0.0104 C.3     
   2 C2             0.0021    -0.0041     0.0020 C.3     
   3 C3             0.8475    -0.5091     1.1729 C.3     
   4 O4             0.5662    -0.4660    -1.2270 O.3     
   5 O5             1.3220     2.0204     0.0003 O.3     
   6 N6             1.4177     3.4802     0.0072 N.3     
   7 H7            -0.5459     1.8868    -0.8726 H       
   8 H8            -0.5289     1.8773     0.9072 H       
   9 H9            -1.0158    -0.3818     0.0993 H       
  10 H10            0.4173    -0.1567     2.1104 H       
  11 H11            0.8623    -1.5990     1.1669 H       
  12 H12            1.8654    -0.1314     1.0757 H       
  13 H13            0.6109    -1.4291    -1.3018 H       
  14 H14            0.9238     3.8713     0.7954 H       
  15 H15            2.3813     3.7795    -0.0004 H       
  16 Cl16           7.3813     8.8713     7.1104 Cl      
  17 H17            7.3813    10.2413     7.1104 H       
@<TRIPOS>BOND
   1    1    2 1
   2    1    5 1
   3    1    7 1
   4    1    8 1
   5    2    3 1
   6    2    4 1
   7    2    9 1
   8    3   10 1
   9    3   11 1
  10    3   12 1
  11    4   13 1
  12    5    6 1
  13    6   14 1
  14    6   15 1
  15   16   17 1

#	End of record

