#	Name: ASD09740466
#	Creating user name:	WinNT
#	Creation time:	15. 06. 2019 21:23

#	Modifying user name:	WinNT
#	Modification time:	15. 06. 2019 21:23

#	Program:	/corina/corina34_cracker 3.40 0067  02.08.2006

@<TRIPOS>MOLECULE
ASD09740466
  80   84    0    0    0
SMALL
NO_CHARGES


@<TRIPOS>ATOM
   1 N1            -1.1530     0.6746    -0.3546 N.2     
   2 C2            -1.0230    -0.5961    -0.0647 C.2     
   3 C3            -0.1828     1.4691     0.0014 C.2     
   4 S4             1.0707     0.5298     0.8071 S.3     
   5 C5             0.1166    -0.9342     0.5771 C.2     
   6 C6            -0.1409     2.9271    -0.2345 C.ar    
   7 C7            -1.1977     3.5578    -0.8858 C.ar    
   8 C8             0.9577     3.6747     0.2014 C.ar    
   9 C9             1.0019     5.0346    -0.0155 C.ar    
  10 C10           -0.0435     5.6729    -0.6683 C.ar    
  11 C11           -1.1527     4.9339    -1.1057 C.ar    
  12 O12            0.0051     7.0122    -0.8787 O.3     
  13 C13            1.2127     7.6830    -0.5131 C.3     
  14 C14            1.3556     8.9626    -1.3396 C.3     
  15 C15            1.1681     8.0389     0.9743 C.3     
  16 C16           -2.2328     5.5897    -1.7794 C.1     
  17 N17           -3.0896     6.1100    -2.3139 N.1     
  18 C18            0.4968    -2.2947     1.0115 C.ar    
  19 C19            1.7593    -2.8043     0.6926 C.ar    
  20 C20            2.1081    -4.0746     1.1014 C.ar    
  21 C21            1.2069    -4.8404     1.8254 C.ar    
  22 C22           -0.0426    -4.3417     2.1423 C.ar    
  23 C23           -0.4011    -3.0699     1.7451 C.ar    
  24 C24            2.9043    -2.1792    -0.0749 C.3     
  25 C25            4.1417    -3.0296     0.2830 C.3     
  26 C26            3.5133    -4.3942     0.6371 C.3     
  27 N27            3.4739    -5.2579    -0.5456 N.am    
  28 S28            4.3436    -6.6668    -0.5713 S.o2    
  29 O29            4.0476    -7.2384    -1.8381 O.2     
  30 O30            5.6664    -6.2682    -0.2384 O.2     
  31 C31            3.6257    -7.6663     0.7614 C.3     
  32 C32            4.2612    -9.0581     0.7542 C.3     
  33 N33            3.6798    -9.8675     1.8334 N.3     
  34 C34            4.0859   -11.2737     1.7139 C.3     
  35 C35            3.3490   -12.1097     2.7628 C.3     
  36 C36            3.6848   -11.5790     4.1593 C.3     
  37 C37            3.2965   -10.1002     4.2416 C.3     
  38 C38            4.0349    -9.3224     3.1499 C.3     
  39 N39            2.9348   -12.3403     5.1672 N.3     
  40 C40            3.3212   -11.9379     6.5260 C.3     
  41 C41            1.4868   -12.1949     4.9668 C.3     
  42 H42           -1.7772    -1.3252    -0.3214 H       
  43 H43           -2.0490     2.9831    -1.2196 H       
  44 H44            1.7744     3.1843     0.7103 H       
  45 H45            1.8531     5.6062     0.3240 H       
  46 H46            2.0637     7.0295    -0.7049 H       
  47 H47            0.5046     9.6160    -1.1477 H       
  48 H48            2.2768     9.4743    -1.0606 H       
  49 H49            1.3874     8.7090    -2.3992 H       
  50 H50            0.3170     8.6923     1.1662 H       
  51 H51            1.0662     7.1273     1.5631 H       
  52 H52            2.0892     8.5506     1.2532 H       
  53 H53            1.4835    -5.8346     2.1440 H       
  54 H54           -0.7373    -4.9464     2.7062 H       
  55 H55           -1.3774    -2.6800     1.9925 H       
  56 H56            2.7110    -2.2250    -1.1466 H       
  57 H57            3.0514    -1.1461     0.2400 H       
  58 H58            4.8100    -3.1211    -0.5732 H       
  59 H59            4.6655    -2.6096     1.1417 H       
  60 H60            4.0764    -4.8735     1.4379 H       
  61 H61            2.9383    -5.0044    -1.3136 H       
  62 H62            3.8169    -7.1846     1.7203 H       
  63 H63            2.5503    -7.7572     0.6085 H       
  64 H64            4.0700    -9.5398    -0.2047 H       
  65 H65            5.3366    -8.9672     0.9071 H       
  66 H66            3.8377   -11.6399     0.7177 H       
  67 H67            5.1609   -11.3560     1.8736 H       
  68 H68            2.2743   -12.0389     2.5952 H       
  69 H69            3.6623   -13.1507     2.6840 H       
  70 H70            4.7540   -11.6856     4.3421 H       
  71 H71            2.2210    -9.9977     4.0974 H       
  72 H72            3.5723    -9.7054     5.2195 H       
  73 H73            5.1102    -9.4139     3.3029 H       
  74 H74            3.7497    -8.2714     3.1967 H       
  75 H75            3.1135   -10.8767     6.6636 H       
  76 H76            2.7511   -12.5169     7.2525 H       
  77 H77            4.3860   -12.1213     6.6703 H       
  78 H78            1.2179   -12.5653     3.9776 H       
  79 H79            0.9555   -12.7685     5.7263 H       
  80 H80            1.2126   -11.1431     5.0479 H       
@<TRIPOS>BOND
   1    1    2 1
   2    1    3 2
   3    2    5 2
   4    2   42 1
   5    3    4 1
   6    3    6 1
   7    4    5 1
   8    5   18 1
   9    6    7 ar
  10    6    8 ar
  11    7   11 ar
  12    7   43 1
  13    8    9 ar
  14    8   44 1
  15    9   10 ar
  16    9   45 1
  17   10   11 ar
  18   10   12 1
  19   11   16 1
  20   12   13 1
  21   13   14 1
  22   13   15 1
  23   13   46 1
  24   14   47 1
  25   14   48 1
  26   14   49 1
  27   15   50 1
  28   15   51 1
  29   15   52 1
  30   16   17 3
  31   18   19 ar
  32   18   23 ar
  33   19   20 ar
  34   19   24 1
  35   20   21 ar
  36   20   26 1
  37   21   22 ar
  38   21   53 1
  39   22   23 ar
  40   22   54 1
  41   23   55 1
  42   24   25 1
  43   24   56 1
  44   24   57 1
  45   25   26 1
  46   25   58 1
  47   25   59 1
  48   26   27 1
  49   26   60 1
  50   27   28 am
  51   27   61 1
  52   28   29 2
  53   28   30 2
  54   28   31 1
  55   31   32 1
  56   31   62 1
  57   31   63 1
  58   32   33 1
  59   32   64 1
  60   32   65 1
  61   33   34 1
  62   33   38 1
  63   34   35 1
  64   34   66 1
  65   34   67 1
  66   35   36 1
  67   35   68 1
  68   35   69 1
  69   36   37 1
  70   36   39 1
  71   36   70 1
  72   37   38 1
  73   37   71 1
  74   37   72 1
  75   38   73 1
  76   38   74 1
  77   39   40 1
  78   39   41 1
  79   40   75 1
  80   40   76 1
  81   40   77 1
  82   41   78 1
  83   41   79 1
  84   41   80 1

#	End of record

