#	Name: ASD01917723
#	Creating user name:	WinNT
#	Creation time:	15. 06. 2019 20:09

#	Modifying user name:	WinNT
#	Modification time:	15. 06. 2019 20:09

#	Program:	/corina/corina34_cracker 3.40 0067  02.08.2006

@<TRIPOS>MOLECULE
ASD01917723
  47   50    0    0    0
SMALL
NO_CHARGES


@<TRIPOS>ATOM
   1 C1            -0.0190     1.5498     0.0106 C.3     
   2 C2             0.0021    -0.0041     0.0020 C.3     
   3 C3            -1.1965    -0.3746    -0.8467 C.2     
   4 N4            -1.6002     0.6929    -1.5645 N.am    
   5 C5            -0.7286     1.8410    -1.3054 C.3     
   6 C6            -2.7482     0.7030    -2.4747 C.3     
   7 O7            -1.7161    -1.4701    -0.8766 O.2     
   8 C8             1.2738    -0.5131    -0.6263 C.ar    
   9 N9             2.2982    -0.8252     0.1445 N.ar    
  10 C10            3.4316    -1.2740    -0.3528 C.ar    
  11 C11            3.5869    -1.4362    -1.7321 C.ar    
  12 C12            2.5159    -1.1128    -2.5757 C.ar    
  13 C13            1.3453    -0.6505    -2.0009 C.ar    
  14 C14            4.8212    -1.9189    -2.2743 C.1     
  15 C15            5.8332    -2.3147    -2.7189 C.1     
  16 C16            7.0675    -2.7975    -3.2612 C.ar    
  17 C17            8.1297    -3.1173    -2.4112 C.ar    
  18 C18            9.3155    -3.5821    -2.9393 C.ar    
  19 C19            9.4553    -3.7320    -4.3102 C.ar    
  20 C20            8.4053    -3.4165    -5.1584 C.ar    
  21 C21            7.2127    -2.9563    -4.6420 C.ar    
  22 H22            0.0302     1.8528    -2.0878 H       
  23 H23            0.9935     1.9535     0.0031 H       
  24 H24           -0.1095    -0.3943     1.0136 H       
  25 C25           -1.4618     3.1531    -1.3821 C.3     
  26 C26           -2.2787     3.4388    -0.1271 C.3     
  27 C27           -1.3398     3.4128     1.0828 C.3     
  28 C28           -0.7705     2.0045     1.2479 C.3     
  29 F29           10.6199    -4.1871    -4.8218 F       
  30 H30           -3.2182    -0.2804    -2.4776 H       
  31 H31           -3.4694     1.4494    -2.1416 H       
  32 H32           -2.4111     0.9476    -3.4819 H       
  33 H33            4.2480    -1.5186     0.3106 H       
  34 H34            2.6019    -1.2212    -3.6468 H       
  35 H35            0.4975    -0.3955    -2.6194 H       
  36 H36            8.0222    -3.0002    -1.3430 H       
  37 H37           10.1371    -3.8296    -2.2836 H       
  38 H38            8.5204    -3.5351    -6.2257 H       
  39 H39            6.3952    -2.7112    -5.3038 H       
  40 H40           -0.7365     3.9548    -1.5209 H       
  41 H41           -2.1314     3.1332    -2.2419 H       
  42 H42           -2.7434     4.4214    -0.2087 H       
  43 H43           -3.0482     2.6757    -0.0097 H       
  44 H44           -0.5208     4.1144     0.9248 H       
  45 H45           -1.8928     3.6897     1.9804 H       
  46 H46           -1.5910     1.3100     1.4283 H       
  47 H47           -0.1024     1.9916     2.1091 H       
@<TRIPOS>BOND
   1    1    2 1
   2    1   23 1
   3    1    5 1
   4    1   28 1
   5    2    3 1
   6    2    8 1
   7    2   24 1
   8    3    4 am
   9    3    7 2
  10    4    5 1
  11    4    6 1
  12    5   22 1
  13    5   25 1
  14    6   30 1
  15    6   31 1
  16    6   32 1
  17    8    9 ar
  18    8   13 ar
  19    9   10 ar
  20   10   11 ar
  21   10   33 1
  22   11   12 ar
  23   11   14 1
  24   12   13 ar
  25   12   34 1
  26   13   35 1
  27   14   15 3
  28   15   16 1
  29   16   17 ar
  30   16   21 ar
  31   17   18 ar
  32   17   36 1
  33   18   19 ar
  34   18   37 1
  35   19   20 ar
  36   19   29 1
  37   20   21 ar
  38   20   38 1
  39   21   39 1
  40   25   26 1
  41   25   40 1
  42   25   41 1
  43   26   27 1
  44   26   42 1
  45   26   43 1
  46   27   28 1
  47   27   44 1
  48   27   45 1
  49   28   46 1
  50   28   47 1

#	End of record

