#	Name: ASD02150001
#	Creating user name:	WinNT
#	Creation time:	15. 06. 2019 20:18

#	Modifying user name:	WinNT
#	Modification time:	15. 06. 2019 20:18

#	Program:	/corina/corina34_cracker 3.40 0067  02.08.2006

@<TRIPOS>MOLECULE
ASD02150001
  51   54    0    0    0
SMALL
NO_CHARGES


@<TRIPOS>ATOM
   1 C1             0.0110     1.2551     0.0646 C.ar    
   2 C2            -0.1147    -0.1224     0.1083 C.ar    
   3 C3            -1.3636    -0.7059     0.0755 C.ar    
   4 C4            -2.5054     0.0986    -0.0017 C.ar    
   5 C5            -2.3697     1.4907    -0.0450 C.ar    
   6 C6            -1.1142     2.0585    -0.0065 C.ar    
   7 N7             1.3558     1.8731     0.1003 N.pl3   
   8 N8            -1.4958    -2.1797     0.1213 N.pl3   
   9 C9            -3.8413    -0.5153    -0.0376 C.2     
  10 C10           -4.9457     0.2646     0.0108 C.2     
  11 C11           -6.2271    -0.3243    -0.0236 C.2     
  12 C12           -6.2686    -1.8009    -0.2457 C.3     
  13 S13           -7.8695    -2.3525    -0.9082 S.3     
  14 C14           -9.0201    -1.3970     0.1356 C.3     
  15 N15           -8.5804     0.0207     0.0492 N.am    
  16 C16           -7.2744     0.5133     0.1536 C.2     
  17 C17          -10.3325    -1.0113    -0.5224 C.3     
  18 C18           -9.8120     0.3869    -0.2865 C.2     
  19 O19            2.3477     1.1696     0.1679 O.2     
  20 O20            1.4702     3.0851     0.0620 O.2     
  21 O21           -2.4103    -2.6900     0.7431 O.2     
  22 O22           -0.6900    -2.8818    -0.4628 O.2     
  23 C23           -7.0432     1.9309     0.4418 C.2     
  24 O24           -7.0431     2.7435    -0.4633 O.2     
  25 O25           -6.8304     2.3352     1.7115 O.3     
  26 O26          -10.3402     1.4754    -0.3737 O.2     
  27 N27          -10.4345    -1.3881    -1.9344 N.am    
  28 C28          -11.6451    -1.5780    -2.4955 C.2     
  29 C29          -11.7499    -1.9656    -3.9480 C.3     
  30 C30          -13.2015    -2.1150    -4.3245 C.2     
  31 O31          -12.6501    -1.4369    -1.8315 O.2     
  32 C32          -13.9783    -1.1381    -4.7951 C.2     
  33 C33          -15.2818    -1.5119    -5.0728 C.2     
  34 C34          -15.5637    -2.7924    -4.8276 C.2     
  35 S35          -14.1284    -3.6060    -4.2179 S.3     
  36 H36           -9.1111    -1.7836     1.1507 H       
  37 H37            0.7679    -0.7421     0.1679 H       
  38 H38           -3.2463     2.1186    -0.1049 H       
  39 H39           -1.0077     3.1327    -0.0394 H       
  40 H40           -3.9406    -1.5887    -0.1026 H       
  41 H41           -4.8463     1.3380     0.0759 H       
  42 H42           -5.4818    -2.0750    -0.9484 H       
  43 H43           -6.0853    -2.3063     0.7025 H       
  44 H44          -11.2189    -1.2652     0.0589 H       
  45 H45           -6.6878     3.2873     1.8024 H       
  46 H46           -9.6307    -1.5009    -2.4655 H       
  47 H47          -11.2924    -1.1919    -4.5645 H       
  48 H48          -11.2334    -2.9118    -4.1098 H       
  49 H49          -13.6176    -0.1316    -4.9476 H       
  50 H50          -16.0153    -0.8192    -5.4583 H       
  51 H51          -16.5251    -3.2592    -4.9832 H       
@<TRIPOS>BOND
   1    1    2 ar
   2    1    7 1
   3    1    6 ar
   4    2    3 ar
   5    2   37 1
   6    3    4 ar
   7    3    8 1
   8    4    5 ar
   9    4    9 1
  10    5    6 ar
  11    5   38 1
  12    6   39 1
  13    7   19 2
  14    7   20 2
  15    8   21 2
  16    8   22 2
  17    9   10 2
  18    9   40 1
  19   10   11 1
  20   10   41 1
  21   11   12 1
  22   11   16 2
  23   12   13 1
  24   12   42 1
  25   12   43 1
  26   13   14 1
  27   14   15 1
  28   14   36 1
  29   14   17 1
  30   15   16 1
  31   15   18 am
  32   16   23 1
  33   17   18 1
  34   17   27 1
  35   17   44 1
  36   18   26 2
  37   23   24 2
  38   23   25 1
  39   25   45 1
  40   27   28 am
  41   27   46 1
  42   28   29 1
  43   28   31 2
  44   29   30 1
  45   29   47 1
  46   29   48 1
  47   30   32 2
  48   30   35 1
  49   32   33 1
  50   32   49 1
  51   33   34 2
  52   33   50 1
  53   34   35 1
  54   34   51 1

#	End of record

