#	Name: ASD01940071
#	Creating user name:	WinNT
#	Creation time:	15. 06. 2019 20:11

#	Modifying user name:	WinNT
#	Modification time:	15. 06. 2019 20:11

#	Program:	/corina/corina34_cracker 3.40 0067  02.08.2006

@<TRIPOS>MOLECULE
ASD01940071
  55   56    0    0    0
SMALL
NO_CHARGES


@<TRIPOS>ATOM
   1 C1             0.5235     2.0071    -1.3944 C.ar    
   2 C2             1.1598     1.4466    -2.4934 C.ar    
   3 C3             0.5214     1.4153    -3.7185 C.ar    
   4 C4            -0.7505     1.9415    -3.8516 C.ar    
   5 C5            -1.3888     2.5018    -2.7591 C.ar    
   6 C6            -0.7585     2.5308    -1.5291 C.ar    
   7 F7            -1.3817     3.0773    -0.4622 F       
   8 N8             1.1674     2.0402    -0.1531 N.pl3   
   9 C9             2.3864     1.3981     0.0137 C.ar    
  10 C10            3.5804     2.0565    -0.3278 C.ar    
  11 C11            4.8027     1.4074    -0.1581 C.ar    
  12 C12            4.8340     0.1114     0.3484 C.ar    
  13 C13            3.6380    -0.5392     0.6870 C.ar    
  14 C14            2.4275     0.1043     0.5244 C.ar    
  15 F15            1.2793    -0.5273     0.8526 F       
  16 F16            3.6714    -1.7973     1.1780 F       
  17 C17            6.1247    -0.5783     0.5289 C.2     
  18 N18            6.1542    -1.7836     0.9999 N.2     
  19 O19            7.3937    -2.4459     1.1731 O.3     
  20 C20            7.2770    -3.7689     1.7006 C.3     
  21 C21            3.5404     3.4285    -0.8641 C.2     
  22 O22            2.4723     3.9859    -1.0294 O.2     
  23 N23            4.6877     4.0657    -1.1713 N.am    
  24 O24            4.6493     5.3840    -1.6866 O.3     
  25 C25            5.9371     5.9360    -1.9675 C.3     
  26 C26            5.7751     7.3550    -2.5161 C.3     
  27 O27            5.2158     8.1957    -1.5049 O.3     
  28 I28           -1.7130     1.8910    -5.7117 I       
  29 C29            8.6700    -4.3850     1.8450 C.3     
  30 N30            9.4344    -3.6352     2.8448 N.pl3   
  31 C31           10.7366    -4.0113     3.1490 C.2     
  32 C32           11.5229    -3.2400     4.1775 C.3     
  33 C33           11.2852    -5.0442     2.5372 C.2     
  34 H34            2.1533     1.0356    -2.3911 H       
  35 H35            1.0168     0.9795    -4.5735 H       
  36 H36           -2.3820     2.9122    -2.8663 H       
  37 H37            0.7619     2.5119     0.5912 H       
  38 H38            5.7228     1.9089    -0.4193 H       
  39 H39            7.0455    -0.0778     0.2680 H       
  40 H40            6.7941    -3.7294     2.6770 H       
  41 H41            6.6784    -4.3784     1.0236 H       
  42 H42            5.5396     3.6211    -1.0395 H       
  43 H43            6.5273     5.9657    -1.0516 H       
  44 H44            6.4446     5.3164    -2.7068 H       
  45 H45            6.7494     7.7431    -2.8133 H       
  46 H46            5.1120     7.3367    -3.3811 H       
  47 H47            5.0849     9.1124    -1.7836 H       
  48 H48            8.5767    -5.4235     2.1627 H       
  49 H49            9.1868    -4.3434     0.8862 H       
  50 H50            9.0312    -2.8761     3.2944 H       
  51 H51           11.3602    -3.6776     5.1624 H       
  52 H52           12.5838    -3.2834     3.9313 H       
  53 H53           11.1933    -2.2010     4.1826 H       
  54 H54           12.2976    -5.3366     2.7737 H       
  55 H55           10.7216    -5.5969     1.8001 H       
@<TRIPOS>BOND
   1    1    2 ar
   2    1    8 1
   3    1    6 ar
   4    2    3 ar
   5    2   34 1
   6    3    4 ar
   7    3   35 1
   8    4    5 ar
   9    4   28 1
  10    5    6 ar
  11    5   36 1
  12    6    7 1
  13    8    9 1
  14    8   37 1
  15    9   10 ar
  16    9   14 ar
  17   10   11 ar
  18   10   21 1
  19   11   12 ar
  20   11   38 1
  21   12   13 ar
  22   12   17 1
  23   13   14 ar
  24   13   16 1
  25   14   15 1
  26   17   18 2
  27   17   39 1
  28   18   19 1
  29   19   20 1
  30   20   29 1
  31   20   40 1
  32   20   41 1
  33   21   22 2
  34   21   23 am
  35   23   24 1
  36   23   42 1
  37   24   25 1
  38   25   26 1
  39   25   43 1
  40   25   44 1
  41   26   27 1
  42   26   45 1
  43   26   46 1
  44   27   47 1
  45   29   30 1
  46   29   48 1
  47   29   49 1
  48   30   31 1
  49   30   50 1
  50   31   32 1
  51   31   33 2
  52   32   51 1
  53   32   52 1
  54   32   53 1
  55   33   54 1
  56   33   55 1

#	End of record

