#	Name: ASD01900405
#	Creating user name:	WinNT
#	Creation time:	15. 06. 2019 19:51

#	Modifying user name:	WinNT
#	Modification time:	15. 06. 2019 19:51

#	Program:	/corina/corina34_cracker 3.40 0067  02.08.2006

@<TRIPOS>MOLECULE
ASD01900405
  41   44    0    0    0
SMALL
NO_CHARGES


@<TRIPOS>ATOM
   1 C1            -0.0159     1.2245    -0.0292 C.2     
   2 O2             0.6397     1.0148     0.9734 O.2     
   3 C3             0.4729     0.7561    -1.3431 C.ar    
   4 C4            -0.3170     0.9174    -2.4836 C.ar    
   5 C5             0.1452     0.4781    -3.7064 C.ar    
   6 C6             1.3886    -0.1216    -3.8049 C.ar    
   7 C7             2.1763    -0.2846    -2.6792 C.ar    
   8 C8             1.7288     0.1555    -1.4507 C.ar    
   9 C9            -0.7059     0.6508    -4.9380 C.3     
  10 F10           -0.4183     1.8832    -5.5345 F       
  11 F11           -0.4317    -0.3805    -5.8427 F       
  12 F12           -2.0577     0.6101    -4.5802 F       
  13 C13           -1.2999     1.9398     0.0666 C.ar    
  14 C14           -2.5064     1.2331    -0.0252 C.ar    
  15 C15           -3.7031     1.9087     0.0653 C.ar    
  16 C16           -3.7097     3.2895     0.2473 C.ar    
  17 C17           -2.5086     3.9896     0.3382 C.ar    
  18 C18           -1.3182     3.3262     0.2553 C.ar    
  19 Cl19          -2.4926    -0.4879    -0.2526 Cl      
  20 N20           -4.9175     3.9708     0.3380 N.pl3   
  21 C21           -7.4193     3.8573     0.8323 C.ar    
  22 C22           -8.2378     2.8372     1.3536 C.ar    
  23 C23           -9.6029     3.0766     1.5071 C.ar    
  24 C24          -10.0949     4.3131     1.1382 C.ar    
  25 C25           -9.2292     5.2732     0.6307 C.ar    
  26 N26           -7.9454     5.0316     0.4924 N.ar    
  27 N27           -6.1128     2.0869     1.2540 N.2     
  28 N28           -7.4269     1.7624     1.6065 N.pl3   
  29 C29           -6.0626     3.3068     0.7887 C.2     
  30 H30           -1.2877     1.3849    -2.4080 H       
  31 H31            1.7456    -0.4642    -4.7649 H       
  32 H32            3.1457    -0.7533    -2.7632 H       
  33 H33            2.3465     0.0317    -0.5735 H       
  34 H34           -4.6355     1.3684    -0.0053 H       
  35 H35           -2.5193     5.0603     0.4790 H       
  36 H36           -0.3897     3.8727     0.3308 H       
  37 H37           -4.9662     4.9069     0.0887 H       
  38 H38          -10.2581     2.3152     1.9037 H       
  39 H39          -11.1472     4.5322     1.2434 H       
  40 H40           -9.6196     6.2384     0.3434 H       
  41 H41           -7.7177     0.9121     1.9716 H       
@<TRIPOS>BOND
   1    1    2 2
   2    1    3 1
   3    1   13 1
   4    3    4 ar
   5    3    8 ar
   6    4    5 ar
   7    4   30 1
   8    5    6 ar
   9    5    9 1
  10    6    7 ar
  11    6   31 1
  12    7    8 ar
  13    7   32 1
  14    8   33 1
  15    9   10 1
  16    9   11 1
  17    9   12 1
  18   13   14 ar
  19   13   18 ar
  20   14   15 ar
  21   14   19 1
  22   15   16 ar
  23   15   34 1
  24   16   17 ar
  25   16   20 1
  26   17   18 ar
  27   17   35 1
  28   18   36 1
  29   20   29 1
  30   20   37 1
  31   21   22 ar
  32   21   26 ar
  33   21   29 1
  34   22   23 ar
  35   22   28 1
  36   23   24 ar
  37   23   38 1
  38   24   25 ar
  39   24   39 1
  40   25   26 ar
  41   25   40 1
  42   27   28 1
  43   27   29 2
  44   28   41 1

#	End of record

