#	Name: ASD01913847
#	Creating user name:	WinNT
#	Creation time:	15. 06. 2019 20:02

#	Modifying user name:	WinNT
#	Modification time:	15. 06. 2019 20:02

#	Program:	/corina/corina34_cracker 3.40 0067  02.08.2006

@<TRIPOS>MOLECULE
ASD01913847
  40   42    0    0    0
SMALL
NO_CHARGES


@<TRIPOS>ATOM
   1 C1            -0.0193     1.4278    -0.0131 C.ar    
   2 C2             0.0007    -0.0040    -0.0141 C.1     
   3 C3             0.0170    -1.1779    -0.0150 C.1     
   4 C4             0.0370    -2.6098    -0.0160 C.ar    
   5 C5            -1.1525    -3.3387     0.1328 C.ar    
   6 C6             0.1560    -5.3344    -0.0280 C.ar    
   7 N7             1.2610    -4.6186    -0.1726 N.ar    
   8 C8             1.2401    -3.3019    -0.1709 C.ar    
   9 C9            -1.0819    -4.7173     0.1255 C.ar    
  10 C10            1.1643     2.1552    -0.1612 C.ar    
  11 N11            1.1450     3.4719    -0.1601 N.ar    
  12 C12           -1.1915     3.5066     0.1252 C.ar    
  13 C13           -1.2273     2.1239     0.1307 C.ar    
  14 C14            0.0235     4.1524    -0.0211 C.ar    
  15 N15            0.2331    -6.7251    -0.0369 N.am    
  16 C16            0.1554    -7.3614    -1.2106 C.2     
  17 O17            0.1741    -8.6988    -1.3215 O.3     
  18 C18            0.6535    -9.4539    -0.1747 C.3     
  19 C19           -0.0195    -8.8889     1.0837 C.3     
  20 C20            0.4011    -7.4225     1.2354 C.3     
  21 C21            0.2866   -10.9302    -0.3382 C.3     
  22 C22            2.1721    -9.3079    -0.0583 C.3     
  23 O23            0.0632    -6.6976    -2.2241 O.2     
  24 H24           -2.0999    -2.8337     0.2506 H       
  25 H25            2.1619    -2.7521    -0.2909 H       
  26 H26           -1.9774    -5.3104     0.2379 H       
  27 H27            2.1027     1.6334    -0.2772 H       
  28 H28           -2.1026     4.0763     0.2331 H       
  29 H29           -2.1619     1.5944     0.2433 H       
  30 H30            0.0537     5.2320    -0.0259 H       
  31 H31           -1.1027    -8.9551     0.9819 H       
  32 H32            0.3029    -9.4545     1.9579 H       
  33 H33            1.4449    -7.3755     1.5458 H       
  34 H34           -0.2217    -6.9435     1.9909 H       
  35 H35            0.7472   -11.3207    -1.2457 H       
  36 H36            0.6478   -11.4919     0.5232 H       
  37 H37           -0.7966   -11.0297    -0.4087 H       
  38 H38            2.4272    -8.2559     0.0700 H       
  39 H39            2.5267    -9.8752     0.8022 H       
  40 H40            2.6442    -9.6884    -0.9640 H       
@<TRIPOS>BOND
   1    1    2 1
   2    1   10 ar
   3    1   13 ar
   4    2    3 3
   5    3    4 1
   6    4    5 ar
   7    4    8 ar
   8    5    9 ar
   9    5   24 1
  10    6    7 ar
  11    6   15 1
  12    6    9 ar
  13    7    8 ar
  14    8   25 1
  15    9   26 1
  16   10   11 ar
  17   10   27 1
  18   11   14 ar
  19   12   13 ar
  20   12   14 ar
  21   12   28 1
  22   13   29 1
  23   14   30 1
  24   15   16 am
  25   15   20 1
  26   16   17 1
  27   16   23 2
  28   17   18 1
  29   18   19 1
  30   18   21 1
  31   18   22 1
  32   19   20 1
  33   19   31 1
  34   19   32 1
  35   20   33 1
  36   20   34 1
  37   21   35 1
  38   21   36 1
  39   21   37 1
  40   22   38 1
  41   22   39 1
  42   22   40 1

#	End of record

