#	Name: ASD00230022
#	Creating user name:	WinNT
#	Creation time:	15. 06. 2019 18:33

#	Modifying user name:	WinNT
#	Modification time:	15. 06. 2019 18:33

#	Program:	/corina/corina34_cracker 3.40 0067  02.08.2006

@<TRIPOS>MOLECULE
ASD00230022
  64   65    0    0    0
SMALL
NO_CHARGES


@<TRIPOS>ATOM
   1 Cl1            0.0000     0.0000     0.0000 Cl      
   2 H2             0.0000     1.3700     0.0000 H       
   3 C3            18.9782     7.4199     6.4237 C.1     
   4 C4            18.9623     8.5938     6.4301 C.1     
   5 C5            18.9423    10.0656     6.4382 C.3     
   6 N6            20.3167    10.5727     6.4278 N.pl3   
   7 C7            20.5505    11.9329     6.4329 C.ar    
   8 N8            19.5272    12.7719     6.4527 N.ar    
   9 C9            19.6999    14.0843     6.4588 C.ar    
  10 N10           18.5991    14.9166     6.4796 N.pl3   
  11 C11           17.2497    14.3463     6.4948 C.3     
  12 C12           16.2186    15.4765     6.5166 C.3     
  13 C13           14.8094    14.8809     6.5325 C.3     
  14 C14           13.7783    16.0110     6.5543 C.3     
  15 C15           12.3691    15.4155     6.5702 C.3     
  16 C16           12.1507    14.6527     7.8798 C.3     
  17 C17           10.7198    14.1111     7.9165 C.3     
  18 N18            9.7702    15.2265     7.8146 N.3     
  19 C19            8.3882    14.7586     7.9854 C.3     
  20 C20            7.4342    15.8710     7.6341 C.ar    
  21 C21            7.0157    16.7565     8.6097 C.ar    
  22 C22            6.1406    17.7769     8.2875 C.ar    
  23 C23            5.6843    17.9121     6.9896 C.ar    
  24 C24            6.1034    17.0272     6.0139 C.ar    
  25 C25            6.9819    16.0093     6.3352 C.ar    
  26 C26            9.9292    15.9450     6.5439 C.3     
  27 C27           11.3365    16.5413     6.4662 C.3     
  28 C28           20.9933    14.6417     6.4447 C.ar    
  29 C29           22.1004    13.7898     6.4237 C.ar    
  30 C30           21.8755    12.4113     6.4228 C.ar    
  31 C31           22.9771    11.4964     6.4069 C.1     
  32 N32           23.8510    10.7707     6.3942 N.1     
  33 C33           21.1711    16.0626     6.4514 C.1     
  34 N34           21.3123    17.1898     6.4568 N.1     
  35 H35           18.9924     6.3700     6.4179 H       
  36 H36           18.4151    10.4267     5.5552 H       
  37 H37           18.4321    10.4171     7.3350 H       
  38 H38           21.0624     9.9525     6.4174 H       
  39 H39           18.7189    15.8792     6.4842 H       
  40 H40           17.1026    13.7374     5.6029 H       
  41 H41           17.1275    13.7259     7.3826 H       
  42 H42           16.3658    16.0855     7.4086 H       
  43 H43           16.3408    16.0970     5.6288 H       
  44 H44           14.6622    14.2719     5.6405 H       
  45 H45           14.6872    14.2604     7.4203 H       
  46 H46           13.9255    16.6200     7.4463 H       
  47 H47           13.9005    16.6315     5.6665 H       
  48 H48           12.2518    14.7346     5.7271 H       
  49 H49           12.8554    13.8232     7.9396 H       
  50 H50           12.3070    15.3253     8.7231 H       
  51 H51           10.5685    13.4279     7.0808 H       
  52 H52           10.5566    13.5796     8.8540 H       
  53 H53            8.2096    13.9062     7.3299 H       
  54 H54            8.2314    14.4592     9.0217 H       
  55 H55            7.3722    16.6509     9.6237 H       
  56 H56            5.8131    18.4683     9.0498 H       
  57 H57            5.0000    18.7089     6.7381 H       
  58 H58            5.7467    17.1326     5.0000 H       
  59 H59            7.3123    15.3202     5.5721 H       
  60 H60            9.7817    15.2532     5.7146 H       
  61 H61            9.1918    16.7455     6.4844 H       
  62 H62           11.4800    17.2437     7.2873 H       
  63 H63           11.4595    17.0612     5.5161 H       
  64 H64           23.1046    14.1870     6.4122 H       
@<TRIPOS>BOND
   1    1    2 1
   2    3    4 3
   3    3   35 1
   4    4    5 1
   5    5    6 1
   6    5   36 1
   7    5   37 1
   8    6    7 1
   9    6   38 1
  10    7   30 ar
  11    7    8 ar
  12    8    9 ar
  13    9   10 1
  14    9   28 ar
  15   10   11 1
  16   10   39 1
  17   11   12 1
  18   11   40 1
  19   11   41 1
  20   12   13 1
  21   12   42 1
  22   12   43 1
  23   13   14 1
  24   13   44 1
  25   13   45 1
  26   14   15 1
  27   14   46 1
  28   14   47 1
  29   15   27 1
  30   15   16 1
  31   15   48 1
  32   16   17 1
  33   16   49 1
  34   16   50 1
  35   17   18 1
  36   17   51 1
  37   17   52 1
  38   18   19 1
  39   18   26 1
  40   19   20 1
  41   19   53 1
  42   19   54 1
  43   20   25 ar
  44   20   21 ar
  45   21   22 ar
  46   21   55 1
  47   22   23 ar
  48   22   56 1
  49   23   24 ar
  50   23   57 1
  51   24   25 ar
  52   24   58 1
  53   25   59 1
  54   26   27 1
  55   26   60 1
  56   26   61 1
  57   27   62 1
  58   27   63 1
  59   28   29 ar
  60   28   33 1
  61   29   30 ar
  62   29   64 1
  63   30   31 1
  64   31   32 3
  65   33   34 3

#	End of record

