#	Name: ASD03731192
#	Creating user name:	WinNT
#	Creation time:	15. 06. 2019 20:45

#	Modifying user name:	WinNT
#	Modification time:	15. 06. 2019 20:45

#	Program:	/corina/corina34_cracker 3.40 0067  02.08.2006

@<TRIPOS>MOLECULE
ASD03731192
  65   71    0    0    0
SMALL
NO_CHARGES


@<TRIPOS>ATOM
   1 C1            -0.0191     1.4719     0.0341 C.2     
   2 C2            -0.0016    -0.0061     0.0388 C.ar    
   3 C3             1.2138    -0.6927     0.0483 C.ar    
   4 C4             1.2231    -2.0722     0.0526 C.ar    
   5 C5             0.0314    -2.7751     0.0474 C.ar    
   6 C6            -1.1767    -2.1007     0.0380 C.ar    
   7 C7            -1.2003    -0.7214     0.0394 C.ar    
   8 O8             1.0263     2.0923     0.0386 O.2     
   9 N9            -1.1942     2.1319     0.0193 N.am    
  10 C10            0.0493    -4.2820     0.0516 C.3     
  11 O11           -2.1607    -1.4807     6.2934 O.3     
  12 C12           -2.4104    -1.5538     7.7095 C.3     
  13 O13           -2.9138    -2.8893     7.8997 O.3     
  14 C14           -2.3736    -3.6313     6.8886 C.ar    
  15 C15           -1.9116    -2.7647     5.9007 C.ar    
  16 C16           -2.2355    -4.9985     6.7291 C.ar    
  17 C17           -1.6382    -5.5181     5.5846 C.ar    
  18 C18           -1.1881    -4.6426     4.6010 C.ar    
  19 C19           -1.3188    -3.2788     4.7598 C.ar    
  20 O20           -1.3920    -6.8150     5.2419 O.3     
  21 C21           -0.6262    -5.4938     3.4939 C.3     
  22 C22           -1.1584    -6.8953     3.8225 C.3     
  23 N23            0.0469    -4.7666     1.4341 N.am    
  24 C24           -1.0726    -5.0292     2.1375 C.2     
  25 C25            0.8728    -5.4600     3.4525 C.ar    
  26 C26            1.8569    -5.7657     4.3658 C.ar    
  27 C27            3.1896    -5.6293     4.0202 C.ar    
  28 C28            3.5308    -5.1847     2.7558 C.ar    
  29 C29            2.5487    -4.8763     1.8378 C.ar    
  30 C30            1.2046    -5.0110     2.1768 C.ar    
  31 O31           -2.2163    -4.9134     1.7506 O.2     
  32 C32           -1.2149     3.5256     0.1325 C.ar    
  33 C33           -2.1865     4.2635    -0.5316 C.ar    
  34 C34           -2.2042     5.6396    -0.4177 C.ar    
  35 C35           -1.2556     6.2832     0.3561 C.ar    
  36 C36           -0.2871     5.5516     1.0184 C.ar    
  37 C37           -0.2677     4.1744     0.9137 C.ar    
  38 C38           -3.2199     3.5632    -1.3758 C.3     
  39 C39           -4.3807     3.1090    -0.4885 C.3     
  40 H40            2.1447    -0.1451     0.0520 H       
  41 H41            2.1627    -2.6046     0.0596 H       
  42 H42           -2.1034    -2.6554     0.0340 H       
  43 H43           -2.1439    -0.1962     0.0365 H       
  44 H44           -2.0255     1.6401    -0.0699 H       
  45 H45           -0.8333    -4.6573    -0.4665 H       
  46 H46            0.9466    -4.6361    -0.4560 H       
  47 H47           -1.4863    -1.4095     8.2692 H       
  48 H48           -3.1575    -0.8172     8.0051 H       
  49 H49           -2.5937    -5.6671     7.4979 H       
  50 H50           -0.9581    -2.6101     3.9922 H       
  51 H51           -0.4116    -7.6561     3.5955 H       
  52 H52           -2.0877    -7.0917     3.2878 H       
  53 H53            1.5882    -6.1125     5.3527 H       
  54 H54            3.9617    -5.8698     4.7360 H       
  55 H55            4.5711    -5.0781     2.4861 H       
  56 H56            2.8229    -4.5292     0.8525 H       
  57 H57           -2.9593     6.2139    -0.9338 H       
  58 H58           -1.2711     7.3596     0.4430 H       
  59 H59            0.4524     6.0572     1.6216 H       
  60 H60            0.4861     3.6032     1.4352 H       
  61 H61           -3.5915     4.2482    -2.1378 H       
  62 H62           -2.7688     2.6951    -1.8565 H       
  63 H63           -4.0091     2.4240     0.2735 H       
  64 H64           -4.8318     3.9771    -0.0079 H       
  65 H65           -5.1281     2.6025    -1.0991 H       
@<TRIPOS>BOND
   1    1    2 1
   2    1    8 2
   3    1    9 am
   4    2    3 ar
   5    2    7 ar
   6    3    4 ar
   7    3   40 1
   8    4    5 ar
   9    4   41 1
  10    5    6 ar
  11    5   10 1
  12    6    7 ar
  13    6   42 1
  14    7   43 1
  15    9   32 1
  16    9   44 1
  17   10   23 1
  18   10   45 1
  19   10   46 1
  20   11   12 1
  21   11   15 1
  22   12   13 1
  23   12   47 1
  24   12   48 1
  25   13   14 1
  26   14   15 ar
  27   14   16 ar
  28   15   19 ar
  29   16   17 ar
  30   16   49 1
  31   17   18 ar
  32   17   20 1
  33   18   19 ar
  34   18   21 1
  35   19   50 1
  36   20   22 1
  37   21   22 1
  38   21   24 1
  39   21   25 1
  40   22   51 1
  41   22   52 1
  42   23   24 am
  43   23   30 1
  44   24   31 2
  45   25   26 ar
  46   25   30 ar
  47   26   27 ar
  48   26   53 1
  49   27   28 ar
  50   27   54 1
  51   28   29 ar
  52   28   55 1
  53   29   30 ar
  54   29   56 1
  55   32   33 ar
  56   32   37 ar
  57   33   34 ar
  58   33   38 1
  59   34   35 ar
  60   34   57 1
  61   35   36 ar
  62   35   58 1
  63   36   37 ar
  64   36   59 1
  65   37   60 1
  66   38   39 1
  67   38   61 1
  68   38   62 1
  69   39   63 1
  70   39   64 1
  71   39   65 1

#	End of record

