#	Name: ASD01882243
#	Creating user name:	WinNT
#	Creation time:	15. 06. 2019 19:44

#	Modifying user name:	WinNT
#	Modification time:	15. 06. 2019 19:44

#	Program:	/corina/corina34_cracker 3.40 0067  02.08.2006

@<TRIPOS>MOLECULE
ASD01882243
  51   54    0    0    0
SMALL
NO_CHARGES


@<TRIPOS>ATOM
   1 C1            -0.0178     1.4602     0.0101 C.2     
   2 C2             0.0021    -0.0041     0.0020 C.2     
   3 C3             1.2475    -0.6490    -0.0133 C.2     
   4 C4             2.4222     0.1322    -0.0204 C.2     
   5 C5             2.3605     1.4768    -0.0121 C.2     
   6 N6             1.1705     2.1448     0.0024 N.pl3   
   7 N7            -1.0020     2.3408     0.0295 N.2     
   8 C8            -0.4871     3.5748     0.0288 C.2     
   9 C9             0.8591     3.4798     0.0130 C.2     
  10 C10           -1.2162    -0.7566     0.0101 C.1     
  11 N11           -2.1827    -1.3536     0.0165 N.1     
  12 C12            1.8369     4.6266     0.0101 C.3     
  13 C13            2.0860     5.0880     1.4474 C.3     
  14 F14            2.6129     4.0279     2.1929 F       
  15 F15            2.9937     6.1526     1.4447 F       
  16 F16            0.8793     5.5056     2.0189 F       
  17 C17            1.3280    -2.1247    -0.0215 C.ar    
  18 C18            1.8658    -2.7903    -1.1262 C.ar    
  19 C19            1.9393    -4.1661    -1.1307 C.ar    
  20 C20            1.4779    -4.8927    -0.0360 C.ar    
  21 C21            0.9424    -4.2323     1.0645 C.ar    
  22 C22            0.8720    -2.8564     1.0772 C.ar    
  23 N23            1.5526    -6.2847    -0.0434 N.pl3   
  24 C24            1.0677    -7.0505     1.1076 C.3     
  25 C25            0.6754    -8.4583     0.6548 C.3     
  26 C26            0.1689    -9.2580     1.8568 C.3     
  27 C27            1.2746    -9.3506     2.9103 C.3     
  28 C28            1.6668    -7.9428     3.3631 C.3     
  29 C29            2.1733    -7.1431     2.1611 C.3     
  30 O30            0.8015   -10.0975     4.0330 O.3     
  31 Cl31           2.6072    -4.9946    -2.5023 Cl      
  32 H32            3.3855    -0.3560    -0.0322 H       
  33 H33            3.2797     2.0437    -0.0175 H       
  34 H34           -1.0538     4.4941     0.0418 H       
  35 H35            2.7771     4.3012    -0.4352 H       
  36 H36            1.4264     5.4526    -0.5707 H       
  37 H37            2.2230    -2.2270    -1.9756 H       
  38 H38            0.5853    -4.7984     1.9120 H       
  39 H39            0.4603    -2.3443     1.9343 H       
  40 H40            1.9258    -6.7463    -0.8106 H       
  41 H41            0.1985    -6.5512     1.5360 H       
  42 H42           -0.1123    -8.3923    -0.0957 H       
  43 H43            1.5445    -8.9576     0.2264 H       
  44 H44           -0.7002    -8.7588     2.2852 H       
  45 H45           -0.1105   -10.2610     1.5343 H       
  46 H46            2.1437    -9.8499     2.4819 H       
  47 H47            0.7977    -7.4435     3.7914 H       
  48 H48            2.4545    -8.0087     4.1136 H       
  49 H49            3.0424    -7.6423     1.7327 H       
  50 H50            2.4528    -6.1401     2.4836 H       
  51 H51            1.4518   -10.1966     4.7417 H       
@<TRIPOS>BOND
   1    1    2 1
   2    1    6 1
   3    1    7 2
   4    2    3 2
   5    2   10 1
   6    3    4 1
   7    3   17 1
   8    4    5 2
   9    4   32 1
  10    5    6 1
  11    5   33 1
  12    6    9 1
  13    7    8 1
  14    8    9 2
  15    8   34 1
  16    9   12 1
  17   10   11 3
  18   12   13 1
  19   12   35 1
  20   12   36 1
  21   13   14 1
  22   13   15 1
  23   13   16 1
  24   17   18 ar
  25   17   22 ar
  26   18   19 ar
  27   18   37 1
  28   19   20 ar
  29   19   31 1
  30   20   21 ar
  31   20   23 1
  32   21   22 ar
  33   21   38 1
  34   22   39 1
  35   23   24 1
  36   23   40 1
  37   24   25 1
  38   24   29 1
  39   24   41 1
  40   25   26 1
  41   25   42 1
  42   25   43 1
  43   26   27 1
  44   26   44 1
  45   26   45 1
  46   27   28 1
  47   27   30 1
  48   27   46 1
  49   28   29 1
  50   28   47 1
  51   28   48 1
  52   29   49 1
  53   29   50 1
  54   30   51 1

#	End of record

