#	Name: ASD03240583
#	Creating user name:	WinNT
#	Creation time:	15. 06. 2019 20:35

#	Modifying user name:	WinNT
#	Modification time:	15. 06. 2019 20:35

#	Program:	/corina/corina34_cracker 3.40 0067  02.08.2006

@<TRIPOS>MOLECULE
ASD03240583
  59   64    0    0    0
SMALL
NO_CHARGES


@<TRIPOS>ATOM
   1 C1            -0.0166     1.3755     0.0096 C.ar    
   2 C2             0.0021    -0.0041     0.0020 C.ar    
   3 N3             1.1422    -0.6683    -0.0058 N.ar    
   4 C4             2.3145    -0.0481    -0.0058 C.ar    
   5 C5             2.3702     1.3442    -0.0124 C.ar    
   6 C6             1.1860     2.0698     0.0018 C.ar    
   7 N7             3.4820    -0.8058     0.0220 N.pl3   
   8 C8             4.3592    -0.7194     1.0997 C.ar    
   9 C9             4.9951     0.4890     1.4037 C.ar    
  10 C10            4.7636     1.6835     0.5621 C.2     
  11 N11            3.5939     2.0276    -0.0512 N.pl3   
  12 C12            4.6051    -1.8391     1.8830 C.ar    
  13 C13            5.4648    -1.7537     2.9615 C.ar    
  14 C14            6.0860    -0.5558     3.2700 C.ar    
  15 C15            5.8559     0.5654     2.4984 C.ar    
  16 N16            5.6750     2.5942     0.2851 N.2     
  17 C17            5.1447     3.5397    -0.5058 C.2     
  18 C18            3.8225     3.2036    -0.7369 C.2     
  19 C19            2.8496     3.9538    -1.5545 C.ar    
  20 C20            2.7504     5.3417    -1.4298 C.ar    
  21 C21            2.0273     3.2800    -2.4610 C.ar    
  22 C22            1.1202     3.9875    -3.2218 C.ar    
  23 C23            1.0235     5.3616    -3.0888 C.ar    
  24 C24            1.8387     6.0362    -2.1971 C.ar    
  25 C25            5.8487     4.7302    -1.0363 C.ar    
  26 C26            0.0298     6.1276    -3.9237 C.3     
  27 N27           -1.1281     5.2718    -4.2147 N.3     
  28 C28           -0.4326     7.3677    -3.1561 C.3     
  29 C29            0.6895     6.5566    -5.2358 C.3     
  30 C30            5.5405     5.2178    -2.3062 C.ar    
  31 C31            6.8185     5.3714    -0.2657 C.ar    
  32 C32            7.4708     6.4798    -0.7654 C.ar    
  33 C33            7.1645     6.9556    -2.0278 C.ar    
  34 C34            6.1998     6.3271    -2.7949 C.ar    
  35 H35           -0.9556     1.9091     0.0170 H       
  36 H36           -0.9306    -0.5486     0.0028 H       
  37 H37            1.2002     3.1497     0.0064 H       
  38 H38            3.6863    -1.4002    -0.7168 H       
  39 H39            4.1239    -2.7773     1.6495 H       
  40 H40            5.6536    -2.6275     3.5675 H       
  41 H41            6.7528    -0.4980     4.1176 H       
  42 H42            6.3422     1.4987     2.7408 H       
  43 H43            3.3858     5.8695    -0.7340 H       
  44 H44            2.1020     2.2077    -2.5660 H       
  45 H45            0.4842     3.4681    -3.9232 H       
  46 H46            1.7578     7.1087    -2.0986 H       
  47 H47           -1.8376     5.7824    -4.7186 H       
  48 H48           -0.8486     4.4453    -4.7216 H       
  49 H49            0.4266     8.0027    -2.9402 H       
  50 H50           -1.1513     7.9217    -3.7599 H       
  51 H51           -0.9026     7.0621    -2.2213 H       
  52 H52            1.0190     5.6731    -5.7827 H       
  53 H53           -0.0291     7.1106    -5.8397 H       
  54 H54            1.5487     7.1916    -5.0199 H       
  55 H55            4.7876     4.7280    -2.9059 H       
  56 H56            7.0580     5.0013     0.7202 H       
  57 H57            8.2219     6.9772    -0.1697 H       
  58 H58            7.6775     7.8238    -2.4145 H       
  59 H59            5.9649     6.7031    -3.7797 H       
@<TRIPOS>BOND
   1    1    2 ar
   2    1    6 ar
   3    1   35 1
   4    2    3 ar
   5    2   36 1
   6    3    4 ar
   7    4    5 ar
   8    4    7 1
   9    5    6 ar
  10    5   11 1
  11    6   37 1
  12    7    8 1
  13    7   38 1
  14    8    9 ar
  15    8   12 ar
  16    9   10 1
  17    9   15 ar
  18   10   11 1
  19   10   16 2
  20   11   18 1
  21   12   13 ar
  22   12   39 1
  23   13   14 ar
  24   13   40 1
  25   14   15 ar
  26   14   41 1
  27   15   42 1
  28   16   17 1
  29   17   18 2
  30   17   25 1
  31   18   19 1
  32   19   20 ar
  33   19   21 ar
  34   20   24 ar
  35   20   43 1
  36   21   22 ar
  37   21   44 1
  38   22   23 ar
  39   22   45 1
  40   23   24 ar
  41   23   26 1
  42   24   46 1
  43   25   31 ar
  44   25   30 ar
  45   26   27 1
  46   26   28 1
  47   26   29 1
  48   27   47 1
  49   27   48 1
  50   28   49 1
  51   28   50 1
  52   28   51 1
  53   29   52 1
  54   29   53 1
  55   29   54 1
  56   30   34 ar
  57   30   55 1
  58   31   32 ar
  59   31   56 1
  60   32   33 ar
  61   32   57 1
  62   33   34 ar
  63   33   58 1
  64   34   59 1

#	End of record

