#	Name: ASD01917811
#	Creating user name:	WinNT
#	Creation time:	15. 06. 2019 20:10

#	Modifying user name:	WinNT
#	Modification time:	15. 06. 2019 20:10

#	Program:	/corina/corina34_cracker 3.40 0067  02.08.2006

@<TRIPOS>MOLECULE
ASD01917811
  65   67    0    0    0
SMALL
NO_CHARGES


@<TRIPOS>ATOM
   1 C1             0.1992     0.8825    -1.4646 C.2     
   2 C2             0.0220    -0.4524    -1.4934 C.2     
   3 C3            -1.2268    -1.1593    -1.0308 C.3     
   4 C4            -2.0329    -0.2074    -0.1382 C.3     
   5 N5            -2.0895     1.1175    -0.7738 N.am    
   6 C6            -0.8292     1.8611    -0.9534 C.3     
   7 C7            -3.2634     1.6387    -1.1822 C.2     
   8 O8            -4.2775     0.9770    -1.1130 O.2     
   9 O9             1.4194     1.1367    -1.9551 O.3     
  10 C10            1.9794    -0.0404    -2.2760 C.2     
  11 N11            1.1373    -0.9975    -1.9972 N.2     
  12 C12            3.3551    -0.2261    -2.8626 C.3     
  13 O13            3.2734    -0.1917    -4.2889 O.3     
  14 C14            4.4350    -0.3454    -4.9773 C.ar    
  15 C15            4.4289    -0.3223    -6.3644 C.ar    
  16 C16            5.6110    -0.4788    -7.0619 C.ar    
  17 C17            6.7996    -0.6583    -6.3787 C.ar    
  18 C18            6.8083    -0.6821    -4.9962 C.ar    
  19 C19            5.6297    -0.5199    -4.2940 C.ar    
  20 C20           -3.3161     3.0436    -1.7249 C.3     
  21 N21           -4.3990     3.1479    -2.7060 N.am    
  22 C22           -3.5705     4.0240    -0.5782 C.3     
  23 C23           -2.5172     3.8181     0.5122 C.3     
  24 C24           -3.4856     5.4580    -1.1050 C.3     
  25 C25           -4.9633     3.7765     0.0048 C.3     
  26 C26           -4.3467     4.0882    -3.6701 C.2     
  27 O27           -5.3419     4.1840    -4.5718 O.3     
  28 O28           -3.4012     4.8495    -3.7256 O.2     
  29 C29           -5.2190     5.2201    -5.5816 C.3     
  30 C30           -3.9458     4.9882    -6.3978 C.3     
  31 C31           -6.4348     5.1748    -6.5093 C.3     
  32 C32           -5.1469     6.5889    -4.9019 C.3     
  33 H33           -1.8262    -1.4449    -1.8951 H       
  34 H34           -0.9538    -2.0489    -0.4631 H       
  35 H35           -3.0440    -0.5946    -0.0124 H       
  36 H36           -1.5499    -0.1241     0.8353 H       
  37 H37           -0.5040     2.2758     0.0007 H       
  38 H38           -0.9714     2.6627    -1.6782 H       
  39 H39            4.0087     0.5747    -2.5167 H       
  40 H40            3.7589    -1.1874    -2.5449 H       
  41 H41            3.5007    -0.1825    -6.8985 H       
  42 H42            5.6068    -0.4613    -8.1417 H       
  43 H43            7.7228    -0.7805    -6.9257 H       
  44 H44            7.7379    -0.8232    -4.4649 H       
  45 H45            5.6370    -0.5385    -3.2142 H       
  46 H46           -2.3671     3.2837    -2.2044 H       
  47 H47           -5.1538     2.5402    -2.6617 H       
  48 H48           -1.5269     4.0189     0.1033 H       
  49 H49           -2.7134     4.4992     1.3402 H       
  50 H50           -2.5608     2.7893     0.8698 H       
  51 H51           -4.2361     5.6047    -1.8818 H       
  52 H52           -3.6669     6.1565    -0.2881 H       
  53 H53           -2.4934     5.6343    -1.5203 H       
  54 H54           -5.0238     2.7549     0.3801 H       
  55 H55           -5.1446     4.4750     0.8217 H       
  56 H56           -5.7137     3.9233    -0.7720 H       
  57 H57           -3.9972     4.0130    -6.8821 H       
  58 H58           -3.8536     5.7659    -7.1559 H       
  59 H59           -3.0797     5.0204    -5.7369 H       
  60 H60           -7.3419     5.3400    -5.9279 H       
  61 H61           -6.3426     5.9525    -7.2675 H       
  62 H62           -6.4862     4.1996    -6.9936 H       
  63 H63           -4.2807     6.6211    -4.2410 H       
  64 H64           -5.0546     7.3666    -5.6600 H       
  65 H65           -6.0539     6.7541    -4.3205 H       
@<TRIPOS>BOND
   1    1    2 2
   2    1    9 1
   3    1    6 1
   4    2    3 1
   5    2   11 1
   6    3    4 1
   7    3   33 1
   8    3   34 1
   9    4    5 1
  10    4   35 1
  11    4   36 1
  12    5    6 1
  13    5    7 am
  14    6   37 1
  15    6   38 1
  16    7    8 2
  17    7   20 1
  18    9   10 1
  19   10   11 2
  20   10   12 1
  21   12   13 1
  22   12   39 1
  23   12   40 1
  24   13   14 1
  25   14   15 ar
  26   14   19 ar
  27   15   16 ar
  28   15   41 1
  29   16   17 ar
  30   16   42 1
  31   17   18 ar
  32   17   43 1
  33   18   19 ar
  34   18   44 1
  35   19   45 1
  36   20   21 1
  37   20   22 1
  38   20   46 1
  39   21   26 am
  40   21   47 1
  41   22   23 1
  42   22   24 1
  43   22   25 1
  44   23   48 1
  45   23   49 1
  46   23   50 1
  47   24   51 1
  48   24   52 1
  49   24   53 1
  50   25   54 1
  51   25   55 1
  52   25   56 1
  53   26   27 1
  54   26   28 2
  55   27   29 1
  56   29   30 1
  57   29   31 1
  58   29   32 1
  59   30   57 1
  60   30   58 1
  61   30   59 1
  62   31   60 1
  63   31   61 1
  64   31   62 1
  65   32   63 1
  66   32   64 1
  67   32   65 1

#	End of record

