#	Name: ASD01150427
#	Creating user name:	WinNT
#	Creation time:	15. 06. 2019 19:04

#	Modifying user name:	WinNT
#	Modification time:	15. 06. 2019 19:04

#	Program:	/corina/corina34_cracker 3.40 0067  02.08.2006

@<TRIPOS>MOLECULE
ASD01150427
  47   49    0    0    0
SMALL
NO_CHARGES


@<TRIPOS>ATOM
   1 C1             2.0699     1.2053     0.9468 C.ar    
   2 C2             2.0529    -0.1510     0.6862 C.ar    
   3 C3             1.2125    -0.6606    -0.2852 C.ar    
   4 C4             0.3817     0.1903    -1.0031 C.ar    
   5 C5             0.3958     1.5533    -0.7436 C.ar    
   6 C6             1.2408     2.0620     0.2325 C.ar    
   7 N7             1.2579     3.4358     0.4976 N.am    
   8 C8             0.0974     4.0899     0.6804 C.2     
   9 N9             0.0768     5.4111     0.9371 N.am    
  10 C10            1.2328     6.1024     1.0149 C.2     
  11 C11            2.5056     5.3927     0.8164 C.2     
  12 N12            2.4831     4.1085     0.5744 N.2     
  13 O13            1.2225     7.2972     1.2459 O.2     
  14 C14           -1.2019     6.0990     1.1317 C.3     
  15 O15           -0.9512     3.4776     0.6123 O.2     
  16 C16           -1.5734     6.0652     2.5918 C.ar    
  17 C17           -1.1671     7.0769     3.4407 C.ar    
  18 N18           -1.4883     7.0542     4.7196 N.ar    
  19 C19           -2.2040     6.0754     5.2375 C.ar    
  20 C20           -2.6462     5.0294     4.4494 C.ar    
  21 C21           -2.3322     5.0213     3.0992 C.ar    
  22 N22           -0.4683    -0.3265    -1.9871 N.am    
  23 C23           -1.0411    -1.5345    -1.8162 C.2     
  24 O24           -0.7541    -2.2107    -0.8511 O.2     
  25 O25            3.6864     6.0605     0.8885 O.3     
  26 C26            4.8770     5.2972     0.6836 C.3     
  27 C27           -2.5434     6.0970     6.7056 C.3     
  28 C28           -2.0383    -2.0450    -2.8242 C.3     
  29 H29            2.7249     1.5999     1.7095 H       
  30 H30            2.6981    -0.8147     1.2427 H       
  31 H31            1.2018    -1.7216    -0.4867 H       
  32 H32           -0.2489     2.2170    -1.3006 H       
  33 H33           -1.1109     7.1345     0.8038 H       
  34 H34           -1.9755     5.5998     0.5483 H       
  35 H35           -0.5793     7.8956     3.0525 H       
  36 H36           -3.2318     4.2303     4.8795 H       
  37 H37           -2.6641     4.2171     2.4592 H       
  38 H38           -0.6453     0.1846    -2.7923 H       
  39 H39            5.7460     5.9498     0.7678 H       
  40 H40            4.9387     4.5111     1.4362 H       
  41 H41            4.8545     4.8485    -0.3094 H       
  42 H42           -3.4868     6.6228     6.8527 H       
  43 H43           -2.6362     5.0747     7.0722 H       
  44 H44           -1.7527     6.6092     7.2538 H       
  45 H45           -2.1670    -1.3055    -3.6146 H       
  46 H46           -1.6743    -2.9777    -3.2551 H       
  47 H47           -2.9948    -2.2210    -2.3321 H       
@<TRIPOS>BOND
   1    1    2 ar
   2    1    6 ar
   3    1   29 1
   4    2    3 ar
   5    2   30 1
   6    3    4 ar
   7    3   31 1
   8    4    5 ar
   9    4   22 1
  10    5    6 ar
  11    5   32 1
  12    6    7 1
  13    7    8 am
  14    7   12 1
  15    8    9 am
  16    8   15 2
  17    9   10 am
  18    9   14 1
  19   10   11 1
  20   10   13 2
  21   11   12 2
  22   11   25 1
  23   14   16 1
  24   14   33 1
  25   14   34 1
  26   16   17 ar
  27   16   21 ar
  28   17   18 ar
  29   17   35 1
  30   18   19 ar
  31   19   20 ar
  32   19   27 1
  33   20   21 ar
  34   20   36 1
  35   21   37 1
  36   22   23 am
  37   22   38 1
  38   23   24 2
  39   23   28 1
  40   25   26 1
  41   26   39 1
  42   26   40 1
  43   26   41 1
  44   27   42 1
  45   27   43 1
  46   27   44 1
  47   28   45 1
  48   28   46 1
  49   28   47 1

#	End of record

