#	Name: ASD03430744
#	Creating user name:	WinNT
#	Creation time:	15. 06. 2019 20:41

#	Modifying user name:	WinNT
#	Modification time:	15. 06. 2019 20:41

#	Program:	/corina/corina34_cracker 3.40 0067  02.08.2006

@<TRIPOS>MOLECULE
ASD03430744
  63   68    0    0    0
SMALL
NO_CHARGES


@<TRIPOS>ATOM
   1 C1             2.6528     0.3967    -0.0245 C.ar    
   2 C2             2.0845    -0.8683    -0.0571 C.ar    
   3 C3             2.8764    -1.9762    -0.2672 C.ar    
   4 C4             4.2509    -1.8423    -0.4396 C.ar    
   5 C5             4.8137    -0.5695    -0.4099 C.ar    
   6 C6             4.0209     0.5398    -0.2040 C.ar    
   7 O7             4.8485    -3.0566    -0.6073 O.3     
   8 C8             2.5718    -3.4462    -0.3766 C.3     
   9 C9             3.8541    -4.0270    -0.9881 C.3     
  10 C10            0.9865    -4.6184     0.8210 C.ar    
  11 C11            2.2572    -4.0635     0.9538 C.ar    
  12 C12            1.3698    -3.7159    -1.2352 C.2     
  13 N13            0.4959    -4.3979    -0.4681 N.am    
  14 O14            1.2157    -3.3854    -2.3919 O.2     
  15 C15            2.9422    -4.1595     2.1440 C.ar    
  16 C16            2.3699    -4.8105     3.2228 C.ar    
  17 C17            1.1087    -5.3638     3.1023 C.ar    
  18 C18            0.4178    -5.2709     1.9118 C.ar    
  19 C19           -0.8162    -4.8549    -0.9327 C.3     
  20 C20           -1.8970    -4.1807    -0.1275 C.ar    
  21 C21           -3.0403    -4.8780     0.2153 C.ar    
  22 C22           -4.0317    -4.2595     0.9538 C.ar    
  23 C23           -3.8796    -2.9438     1.3499 C.ar    
  24 C24           -2.7359    -2.2468     1.0078 C.ar    
  25 C25           -1.7426    -2.8667     0.2730 C.ar    
  26 C26           -0.9830    -4.5058    -2.3892 C.ar    
  27 C27           -0.9510    -5.5022    -3.3468 C.ar    
  28 C28           -1.1040    -5.1819    -4.6829 C.ar    
  29 C29           -1.2893    -3.8653    -5.0612 C.ar    
  30 C30           -1.3222    -2.8690    -4.1034 C.ar    
  31 C31           -1.1735    -3.1898    -2.7670 C.ar    
  32 O32            1.8719     1.4916     0.1767 O.3     
  33 C33            2.5275     2.7612     0.1977 C.3     
  34 C34            1.4946     3.8648     0.4339 C.3     
  35 O35            0.9239     3.7125     1.7351 O.3     
  36 C36           -0.0588     4.6986     2.0579 C.3     
  37 H37            1.0200    -0.9850     0.0829 H       
  38 H38            5.8780    -0.4500    -0.5490 H       
  39 H39            4.4666     1.5233    -0.1823 H       
  40 H40            3.7711    -4.0909    -2.0731 H       
  41 H41            4.0806    -5.0026    -0.5580 H       
  42 H42            3.9274    -3.7266     2.2358 H       
  43 H43            2.9074    -4.8864     4.1564 H       
  44 H44            0.6622    -5.8716     3.9444 H       
  45 H45           -0.5671    -5.7055     1.8255 H       
  46 H46           -0.8900    -5.9352    -0.8073 H       
  47 H47           -3.1591    -5.9058    -0.0942 H       
  48 H48           -4.9253    -4.8040     1.2210 H       
  49 H49           -4.6545    -2.4604     1.9263 H       
  50 H50           -2.6172    -1.2189     1.3170 H       
  51 H51           -0.8490    -2.3221     0.0058 H       
  52 H52           -0.8062    -6.5308    -3.0513 H       
  53 H53           -1.0783    -5.9603    -5.4311 H       
  54 H54           -1.4081    -3.6150    -6.1050 H       
  55 H55           -1.4666    -1.8404    -4.3990 H       
  56 H56           -1.1992    -2.4115    -2.0188 H       
  57 H57            3.2650     2.7759     1.0002 H       
  58 H58            3.0261     2.9285    -0.7570 H       
  59 H59            1.9799     4.8382     0.3617 H       
  60 H60            0.7087     3.7939    -0.3181 H       
  61 H61           -0.4433     4.5136     3.0609 H       
  62 H62            0.3943     5.6892     2.0194 H       
  63 H63           -0.8769     4.6450     1.3396 H       
@<TRIPOS>BOND
   1    1    2 ar
   2    1    6 ar
   3    1   32 1
   4    2    3 ar
   5    2   37 1
   6    3    4 ar
   7    3    8 1
   8    4    5 ar
   9    4    7 1
  10    5    6 ar
  11    5   38 1
  12    6   39 1
  13    7    9 1
  14    8    9 1
  15    8   11 1
  16    8   12 1
  17    9   40 1
  18    9   41 1
  19   10   11 ar
  20   10   13 1
  21   10   18 ar
  22   11   15 ar
  23   12   13 am
  24   12   14 2
  25   13   19 1
  26   15   16 ar
  27   15   42 1
  28   16   17 ar
  29   16   43 1
  30   17   18 ar
  31   17   44 1
  32   18   45 1
  33   19   20 1
  34   19   26 1
  35   19   46 1
  36   20   21 ar
  37   20   25 ar
  38   21   22 ar
  39   21   47 1
  40   22   23 ar
  41   22   48 1
  42   23   24 ar
  43   23   49 1
  44   24   25 ar
  45   24   50 1
  46   25   51 1
  47   26   27 ar
  48   26   31 ar
  49   27   28 ar
  50   27   52 1
  51   28   29 ar
  52   28   53 1
  53   29   30 ar
  54   29   54 1
  55   30   31 ar
  56   30   55 1
  57   31   56 1
  58   32   33 1
  59   33   34 1
  60   33   57 1
  61   33   58 1
  62   34   35 1
  63   34   59 1
  64   34   60 1
  65   35   36 1
  66   36   61 1
  67   36   62 1
  68   36   63 1

#	End of record

