#	Name: ASD01320158
#	Creating user name:	WinNT
#	Creation time:	15. 06. 2019 19:16

#	Modifying user name:	WinNT
#	Modification time:	15. 06. 2019 19:16

#	Program:	/corina/corina34_cracker 3.40 0067  02.08.2006

@<TRIPOS>MOLECULE
ASD01320158
  43   44    0    0    0
SMALL
NO_CHARGES


@<TRIPOS>ATOM
   1 C1            -0.0178     1.4608     0.0101 C.3     
   2 N2             0.0021    -0.0041     0.0020 N.am    
   3 C3             1.4184     1.9908     0.0182 C.3     
   4 N4            -0.8573    -2.0417     0.7496 N.am    
   5 O5             2.1127     1.4715     1.1542 O.3     
   6 C6             2.1271     1.5426    -1.2637 C.3     
   7 N7            -1.6573    -8.4583     1.4732 N.pl3   
   8 O8             2.2030     0.1159    -1.2941 O.3     
   9 C9             1.3310     2.0392    -2.4744 C.3     
  10 O10            1.9432     1.5654    -3.6756 O.3     
  11 C11           -0.1019     1.5073    -2.3863 C.3     
  12 O12           -0.6924     1.9347    -1.1572 O.3     
  13 C13           -0.9200     2.0481    -3.5606 C.3     
  14 O14           -2.2226     1.4607    -3.5442 O.3     
  15 C15           -0.8756    -0.6941     0.7570 C.2     
  16 O16           -1.6836    -0.1010     1.4445 O.2     
  17 C17           -1.7350    -2.7317     1.5046 C.2     
  18 O18           -2.5429    -2.1388     2.1919 O.2     
  19 C19           -1.7150    -4.2092     1.4964 C.ar    
  20 O20           -2.4505    -9.0818     2.1555 O.2     
  21 C21           -2.6228    -4.9271     2.2773 C.ar    
  22 O22           -0.8476    -9.0526     0.7842 O.2     
  23 C23           -2.5986    -6.3063     2.2651 C.ar    
  24 C24           -1.6774    -6.9783     1.4813 C.ar    
  25 C25           -0.7746    -6.2730     0.7053 C.ar    
  26 C26           -0.7920    -4.8936     0.7035 C.ar    
  27 H27           -0.5400     1.8123     0.8999 H       
  28 H28            0.6469    -0.4774    -0.5467 H       
  29 H29            1.4046     3.0797     0.0662 H       
  30 H30           -0.2125    -2.5150     0.2009 H       
  31 H31            1.7152     1.7127     2.0021 H       
  32 H32            3.1328     1.9619    -1.2900 H       
  33 H33            2.6887    -0.2680    -0.5512 H       
  34 H34            1.3163     3.1291    -2.4786 H       
  35 H35            2.8564     1.8605    -3.7945 H       
  36 H36           -0.0882     0.4181    -2.4236 H       
  37 H37           -1.0087     3.1310    -3.4736 H       
  38 H38           -0.4207     1.7985    -4.4968 H       
  39 H39           -2.7975     1.7586    -4.2624 H       
  40 H40           -3.3421    -4.4038     2.8898 H       
  41 H41           -3.3000    -6.8629     2.8690 H       
  42 H42           -0.0577    -6.8036     0.0964 H       
  43 H43           -0.0899    -4.3443     0.0936 H       
@<TRIPOS>BOND
   1    1    2 1
   2    1    3 1
   3    1   12 1
   4    1   27 1
   5    2   15 am
   6    2   28 1
   7    3    5 1
   8    3    6 1
   9    3   29 1
  10    4   15 am
  11    4   17 am
  12    4   30 1
  13    5   31 1
  14    6    8 1
  15    6    9 1
  16    6   32 1
  17    7   20 2
  18    7   22 2
  19    7   24 1
  20    8   33 1
  21    9   10 1
  22    9   11 1
  23    9   34 1
  24   10   35 1
  25   11   12 1
  26   11   13 1
  27   11   36 1
  28   13   14 1
  29   13   37 1
  30   13   38 1
  31   14   39 1
  32   15   16 2
  33   17   18 2
  34   17   19 1
  35   19   21 ar
  36   19   26 ar
  37   21   23 ar
  38   21   40 1
  39   23   24 ar
  40   23   41 1
  41   24   25 ar
  42   25   26 ar
  43   25   42 1
  44   26   43 1

#	End of record

