#	Name: ASD03320024
#	Creating user name:	WinNT
#	Creation time:	15. 06. 2019 20:35

#	Modifying user name:	WinNT
#	Modification time:	15. 06. 2019 20:35

#	Program:	/corina/corina34_cracker 3.40 0067  02.08.2006

@<TRIPOS>MOLECULE
ASD03320024
  60   64    0    0    0
SMALL
NO_CHARGES


@<TRIPOS>ATOM
   1 C1            -0.0865     0.3379     0.8218 C.ar    
   2 C2            -0.0286    -1.0438     0.6408 C.ar    
   3 C3             1.0705     1.0849     0.7993 C.ar    
   4 C4             2.3017     0.4583     0.5952 C.ar    
   5 C5             2.3586    -0.9252     0.4141 C.ar    
   6 C6             1.2006    -1.6705     0.4369 C.ar    
   7 C7             3.5440     1.2592     0.5705 C.2     
   8 N8             3.5725     2.4388    -0.0808 N.am    
   9 O9             4.5399     0.8539     1.1376 O.2     
  10 C10           -1.2750    -1.8474     0.6657 C.ar    
  11 C11           -1.2301    -3.2275     0.4862 C.ar    
  12 C12           -2.4312    -3.9362     0.5190 C.ar    
  13 N13           -3.5666    -3.2727     0.7189 N.ar    
  14 C14           -3.5668    -1.9650     0.8846 C.ar    
  15 N15           -2.4557    -1.2598     0.8658 N.ar    
  16 N16           -2.4415    -5.3120     0.3453 N.pl3   
  17 C17           -3.6333    -6.0266     0.4955 C.ar    
  18 C18           -3.8498    -7.1814    -0.2442 C.ar    
  19 C19           -5.0305    -7.8864    -0.0925 C.ar    
  20 C20           -5.9946    -7.4403     0.7961 C.ar    
  21 C21           -5.7802    -6.2901     1.5329 C.ar    
  22 C22           -4.6011    -5.5856     1.3897 C.ar    
  23 C23            4.7627     3.2988    -0.0192 C.3     
  24 C24            5.2265     3.5971    -1.4503 C.3     
  25 N25            4.0681     4.0461    -2.2354 N.am    
  26 C26            2.8779     3.1862    -2.2970 C.3     
  27 C27            2.4162     2.8853    -0.8705 C.3     
  28 C28            4.0966     5.2257    -2.8867 C.2     
  29 C29            5.3392     6.0234    -2.9159 C.ar    
  30 O30            3.0994     5.6331    -3.4502 O.2     
  31 C31            5.3143     7.3761    -2.5630 C.ar    
  32 C32            6.4830     8.1155    -2.5927 C.ar    
  33 C33            7.6713     7.5193    -2.9699 C.ar    
  34 C34            7.7016     6.1801    -3.3204 C.ar    
  35 C35            6.5461     5.4288    -3.2906 C.ar    
  36 F36            4.1526     7.9591    -2.1946 F       
  37 F37           -5.2432    -9.0101    -0.8116 F       
  38 H38           -1.0392     0.8228     0.9751 H       
  39 H39            1.0254     2.1548     0.9392 H       
  40 H40            3.3104    -1.4106     0.2558 H       
  41 H41            1.2444    -2.7404     0.2968 H       
  42 H42           -0.2907    -3.7355     0.3256 H       
  43 H43           -4.5066    -1.4576     1.0449 H       
  44 H44           -1.6215    -5.7784     0.1194 H       
  45 H45           -3.0978    -7.5287    -0.9372 H       
  46 H46           -6.9158    -7.9917     0.9135 H       
  47 H47           -6.5343    -5.9444     2.2245 H       
  48 H48           -4.4350    -4.6876     1.9661 H       
  49 H49            4.5141     4.2317     0.4868 H       
  50 H50            5.5569     2.7859     0.5233 H       
  51 H51            5.9833     4.3813    -1.4336 H       
  52 H52            5.6423     2.6934    -1.8959 H       
  53 H53            2.0837     3.6991    -2.8395 H       
  54 H54            3.1265     2.2533    -2.8030 H       
  55 H55            1.6595     2.1010    -0.8886 H       
  56 H56            2.0006     3.7879    -0.4225 H       
  57 H57            6.4667     9.1606    -2.3209 H       
  58 H58            8.5810     8.1010    -2.9918 H       
  59 H59            8.6343     5.7216    -3.6141 H       
  60 H60            6.5727     4.3845    -3.5645 H       
@<TRIPOS>BOND
   1    1    2 ar
   2    1    3 ar
   3    1   38 1
   4    2   10 1
   5    2    6 ar
   6    3    4 ar
   7    3   39 1
   8    4    5 ar
   9    4    7 1
  10    5    6 ar
  11    5   40 1
  12    6   41 1
  13    7    8 am
  14    7    9 2
  15    8   23 1
  16    8   27 1
  17   10   11 ar
  18   10   15 ar
  19   11   12 ar
  20   11   42 1
  21   12   13 ar
  22   12   16 1
  23   13   14 ar
  24   14   15 ar
  25   14   43 1
  26   16   17 1
  27   16   44 1
  28   17   18 ar
  29   17   22 ar
  30   18   19 ar
  31   18   45 1
  32   19   20 ar
  33   19   37 1
  34   20   21 ar
  35   20   46 1
  36   21   22 ar
  37   21   47 1
  38   22   48 1
  39   23   24 1
  40   23   49 1
  41   23   50 1
  42   24   25 1
  43   24   51 1
  44   24   52 1
  45   25   26 1
  46   25   28 am
  47   26   27 1
  48   26   53 1
  49   26   54 1
  50   27   55 1
  51   27   56 1
  52   28   29 1
  53   28   30 2
  54   29   31 ar
  55   29   35 ar
  56   31   32 ar
  57   31   36 1
  58   32   33 ar
  59   32   57 1
  60   33   34 ar
  61   33   58 1
  62   34   35 ar
  63   34   59 1
  64   35   60 1

#	End of record

