#	Name: ASD00170088
#	Creating user name:	WinNT
#	Creation time:	15. 06. 2019 18:31

#	Modifying user name:	WinNT
#	Modification time:	15. 06. 2019 18:31

#	Program:	/corina/corina34_cracker 3.40 0067  02.08.2006

@<TRIPOS>MOLECULE
ASD00170088
  53   57    0    0    0
SMALL
NO_CHARGES


@<TRIPOS>ATOM
   1 C1             0.0023     1.3496    -0.0675 C.2     
   2 C2             0.0218     0.0144     0.2012 C.2     
   3 C3            -1.3119    -0.5536     0.2777 C.2     
   4 C4            -2.3019     0.3756     0.0632 C.2     
   5 S5            -1.6486     1.9223    -0.2219 S.3     
   6 N6            -3.6504     0.0928     0.0813 N.pl3   
   7 C7             1.2023     2.1972    -0.2034 C.ar    
   8 C8             2.2682     1.7814    -1.0053 C.ar    
   9 C9             3.3867     2.5790    -1.1276 C.ar    
  10 C10            3.4548     3.7884    -0.4585 C.ar    
  11 C11            2.4031     4.2064     0.3378 C.ar    
  12 C12            1.2756     3.4222     0.4646 C.ar    
  13 C13           -1.5745    -1.9652     0.5530 C.2     
  14 C14           -1.6341    -2.4473     1.9490 C.ar    
  15 O15           -1.7441    -2.7440    -0.3679 O.2     
  16 C16            1.2627    -0.7690     0.3931 C.ar    
  17 C17            2.0749    -0.5341     1.5031 C.ar    
  18 C18            3.2305    -1.2678     1.6762 C.ar    
  19 C19            3.5847    -2.2343     0.7517 C.ar    
  20 C20            2.7837    -2.4720    -0.3510 C.ar    
  21 C21            1.6224    -1.7495    -0.5323 C.ar    
  22 C22           -1.7733    -3.8123     2.2119 C.ar    
  23 C23           -1.8287    -4.2602     3.5124 C.ar    
  24 C24           -1.7460    -3.3515     4.5677 C.ar    
  25 C25           -1.6075    -1.9881     4.3064 C.ar    
  26 C26           -1.5456    -1.5388     3.0066 C.ar    
  27 C27           -1.8059    -3.8351     5.9681 C.ar    
  28 C28           -1.7236    -2.9298     7.0251 C.ar    
  29 C29           -1.7798    -3.3857     8.3264 C.ar    
  30 C30           -1.9171    -4.7381     8.5830 C.ar    
  31 C31           -1.9989    -5.6411     7.5382 C.ar    
  32 C32           -1.9505    -5.1961     6.2328 C.ar    
  33 H33           -3.9566    -0.7946     0.3258 H       
  34 H34           -4.2934     0.7810    -0.1506 H       
  35 H35            2.2165     0.8377    -1.5278 H       
  36 H36            4.2116     2.2588    -1.7468 H       
  37 H37            4.3332     4.4089    -0.5580 H       
  38 H38            2.4632     5.1513     0.8574 H       
  39 H39            0.4554     3.7498     1.0861 H       
  40 H40            1.7998     0.2205     2.2251 H       
  41 H41            3.8600    -1.0870     2.5349 H       
  42 H42            4.4907    -2.8054     0.8914 H       
  43 H43            3.0657    -3.2278    -1.0691 H       
  44 H44            0.9978    -1.9361    -1.3934 H       
  45 H45           -1.8376    -4.5159     1.3950 H       
  46 H46           -1.9367    -5.3154     3.7157 H       
  47 H47           -1.5443    -1.2854     5.1241 H       
  48 H48           -1.4383    -0.4833     2.8045 H       
  49 H49           -1.6156    -1.8739     6.8259 H       
  50 H50           -1.7161    -2.6853     9.1460 H       
  51 H51           -1.9604    -5.0903     9.6030 H       
  52 H52           -2.1057    -6.6958     7.7445 H       
  53 H53           -2.0144    -5.9020     5.4179 H       
@<TRIPOS>BOND
   1    1    2 2
   2    1    7 1
   3    1    5 1
   4    2    3 1
   5    2   16 1
   6    3    4 2
   7    3   13 1
   8    4    5 1
   9    4    6 1
  10    6   33 1
  11    6   34 1
  12    7    8 ar
  13    7   12 ar
  14    8    9 ar
  15    8   35 1
  16    9   10 ar
  17    9   36 1
  18   10   11 ar
  19   10   37 1
  20   11   12 ar
  21   11   38 1
  22   12   39 1
  23   13   14 1
  24   13   15 2
  25   14   22 ar
  26   14   26 ar
  27   16   17 ar
  28   16   21 ar
  29   17   18 ar
  30   17   40 1
  31   18   19 ar
  32   18   41 1
  33   19   20 ar
  34   19   42 1
  35   20   21 ar
  36   20   43 1
  37   21   44 1
  38   22   23 ar
  39   22   45 1
  40   23   24 ar
  41   23   46 1
  42   24   25 ar
  43   24   27 1
  44   25   26 ar
  45   25   47 1
  46   26   48 1
  47   27   28 ar
  48   27   32 ar
  49   28   29 ar
  50   28   49 1
  51   29   30 ar
  52   29   50 1
  53   30   31 ar
  54   30   51 1
  55   31   32 ar
  56   31   52 1
  57   32   53 1

#	End of record

