#	Name: ASD01230299
#	Creating user name:	WinNT
#	Creation time:	15. 06. 2019 19:12

#	Modifying user name:	WinNT
#	Modification time:	15. 06. 2019 19:12

#	Program:	/corina/corina34_cracker 3.40 0067  02.08.2006

@<TRIPOS>MOLECULE
ASD01230299
  48   51    0    0    0
SMALL
NO_CHARGES


@<TRIPOS>ATOM
   1 S1            -1.6211     2.7525     1.5541 S.o2    
   2 N2            -1.3522     1.2755     0.8758 N.am    
   3 C3            -0.2275     0.8818     0.4269 C.2     
   4 N4             0.9287     1.6178     0.4816 N.pl3   
   5 C5             1.1095     2.6844     1.4600 C.3     
   6 C6            -0.0646     3.6613     1.3695 C.3     
   7 C7            -0.0958    -0.4916    -0.2111 C.3     
   8 C8             1.2815    -1.0406     0.1696 C.3     
   9 C9             2.3970    -0.1601    -0.3774 C.3     
  10 C10            1.9801     1.3013    -0.4909 C.3     
  11 C11           -1.1743    -1.4053     0.3117 C.ar    
  12 C12           -2.0845    -1.9696    -0.5629 C.ar    
  13 C13           -3.0737    -2.8078    -0.0863 C.ar    
  14 C14           -3.1534    -3.0832     1.2713 C.ar    
  15 C15           -2.2388    -2.5155     2.1468 C.ar    
  16 C16           -1.2483    -1.6822     1.6644 C.ar    
  17 O17           -4.1258    -3.9070     1.7427 O.3     
  18 C18           -4.9320    -4.5250     0.8394 C.ar    
  19 C19           -4.5688    -5.7561     0.3125 C.ar    
  20 C20           -5.3889    -6.3828    -0.6053 C.ar    
  21 C21           -6.5731    -5.7829    -0.9997 C.ar    
  22 C22           -6.9365    -4.5544    -0.4753 C.ar    
  23 C23           -6.1212    -3.9280     0.4476 C.ar    
  24 C24           -4.9947    -7.7198    -1.1781 C.3     
  25 F25           -7.3743    -6.3971    -1.8976 F       
  26 O26           -2.6316     3.3297     0.7387 O.2     
  27 O27           -1.8677     2.4653     2.9237 O.2     
  28 H28            1.1496     2.2560     2.4615 H       
  29 H29            2.0396     3.2137     1.2531 H       
  30 H30           -0.0480     4.1606     0.4007 H       
  31 H31            0.0188     4.4042     2.1628 H       
  32 H32           -0.1743    -0.4061    -1.2949 H       
  33 H33            1.3608    -1.0840     1.2558 H       
  34 H34            1.3894    -2.0467    -0.2358 H       
  35 H35            3.2596    -0.2307     0.2853 H       
  36 H36            2.6819    -0.5237    -1.3647 H       
  37 H37            1.6070     1.4910    -1.4974 H       
  38 H38            2.8454     1.9370    -0.3037 H       
  39 H39           -2.0222    -1.7547    -1.6194 H       
  40 H40           -3.7846    -3.2481    -0.7698 H       
  41 H41           -2.2989    -2.7280     3.2040 H       
  42 H42           -0.5336    -1.2434     2.3448 H       
  43 H43           -3.6452    -6.2240     0.6197 H       
  44 H44           -7.8600    -4.0874    -0.7844 H       
  45 H45           -6.4073    -2.9718     0.8602 H       
  46 H46           -5.3944    -8.5162    -0.5503 H       
  47 H47           -5.3966    -7.8157    -2.1867 H       
  48 H48           -3.9077    -7.7945    -1.2115 H       
@<TRIPOS>BOND
   1    1    2 am
   2    1    6 1
   3    1   26 2
   4    1   27 2
   5    2    3 2
   6    3    4 1
   7    3    7 1
   8    4    5 1
   9    4   10 1
  10    5    6 1
  11    5   28 1
  12    5   29 1
  13    6   30 1
  14    6   31 1
  15    7    8 1
  16    7   11 1
  17    7   32 1
  18    8    9 1
  19    8   33 1
  20    8   34 1
  21    9   10 1
  22    9   35 1
  23    9   36 1
  24   10   37 1
  25   10   38 1
  26   11   12 ar
  27   11   16 ar
  28   12   13 ar
  29   12   39 1
  30   13   14 ar
  31   13   40 1
  32   14   15 ar
  33   14   17 1
  34   15   16 ar
  35   15   41 1
  36   16   42 1
  37   17   18 1
  38   18   19 ar
  39   18   23 ar
  40   19   20 ar
  41   19   43 1
  42   20   21 ar
  43   20   24 1
  44   21   22 ar
  45   21   25 1
  46   22   23 ar
  47   22   44 1
  48   23   45 1
  49   24   46 1
  50   24   47 1
  51   24   48 1

#	End of record

