#	Name: ASD03240336
#	Creating user name:	WinNT
#	Creation time:	15. 06. 2019 20:34

#	Modifying user name:	WinNT
#	Modification time:	15. 06. 2019 20:34

#	Program:	/corina/corina34_cracker 3.40 0067  02.08.2006

@<TRIPOS>MOLECULE
ASD03240336
  33   34    0    0    0
SMALL
NO_CHARGES


@<TRIPOS>ATOM
   1 Cl1            1.1136     0.3578    -2.5744 Cl      
   2 S2             0.9323    -2.3542     3.3026 S.2     
   3 O3             1.0125     1.3395     0.2102 O.3     
   4 O4             1.3517    -1.9763     5.6215 O.2     
   5 O5            -1.5109    -4.4374     0.5149 O.2     
   6 O6            -1.0828    -4.3441    -1.5488 O.2     
   7 N7             0.0252    -0.0182     2.4221 N.am    
   8 N8             0.5761    -0.1165     4.6885 N.am    
   9 N9            -1.0701    -3.8302    -0.4446 N.pl3   
  10 C10            0.0110    -0.6094     1.1521 C.ar    
  11 C11           -0.5055    -1.8863     0.9850 C.ar    
  12 C12            0.5101     0.0854     0.0532 C.ar    
  13 C13           -0.5191    -2.4677    -0.2686 C.ar    
  14 C14            0.4931    -0.5045    -1.2014 C.ar    
  15 C15           -0.0188    -1.7800    -1.3590 C.ar    
  16 C16            1.1364    -0.1572     7.0710 C.ar    
  17 C17            0.4791    -0.7133     3.4839 C.2     
  18 C18            1.0300    -0.8115     5.7503 C.2     
  19 C19            1.6061    -0.8743     8.1729 C.ar    
  20 C20            0.7730     1.1824     7.2211 C.ar    
  21 C21            1.7034    -0.2573     9.4028 C.ar    
  22 C22            0.8752     1.7872     8.4567 C.ar    
  23 C23            1.3366     1.0692     9.5458 C.ar    
  24 H24           -0.8967    -2.4260     1.8347 H       
  25 H25           -0.2917     0.8913     2.5373 H       
  26 H26           -0.0314    -2.2383    -2.3369 H       
  27 H27            0.3193     0.8132     4.7912 H       
  28 H28            1.8924    -1.9098     8.0627 H       
  29 H29            0.4131     1.7440     6.3717 H       
  30 H30            2.0663    -0.8109    10.2562 H       
  31 H31            0.5949     2.8235     8.5741 H       
  32 H32            1.4147     1.5475    10.5109 H       
  33 H33            1.9594     1.3623     0.4049 H       
@<TRIPOS>BOND
   1    1   14 1
   2    2   17 2
   3    3   12 1
   4    3   33 1
   5    4   18 2
   6    5    9 2
   7    6    9 2
   8    7   10 1
   9    7   17 am
  10    7   25 1
  11    8   17 am
  12    8   18 am
  13    8   27 1
  14    9   13 1
  15   10   11 ar
  16   10   12 ar
  17   11   13 ar
  18   11   24 1
  19   12   14 ar
  20   13   15 ar
  21   14   15 ar
  22   15   26 1
  23   16   18 1
  24   16   19 ar
  25   16   20 ar
  26   19   21 ar
  27   19   28 1
  28   20   22 ar
  29   20   29 1
  30   21   23 ar
  31   21   30 1
  32   22   23 ar
  33   22   31 1
  34   23   32 1

#	End of record

