#	Name: ASD03930100
#	Creating user name:	WinNT
#	Creation time:	15. 06. 2019 20:47

#	Modifying user name:	WinNT
#	Modification time:	15. 06. 2019 20:47

#	Program:	/corina/corina34_cracker 3.40 0067  02.08.2006

@<TRIPOS>MOLECULE
ASD03930100
  43   46    0    0    0
SMALL
NO_CHARGES


@<TRIPOS>ATOM
   1 C1            -0.0173     1.4248     0.0099 C.3     
   2 O2             0.0021    -0.0041     0.0020 O.3     
   3 C3            -1.2011    -0.6379     0.0101 C.ar    
   4 C4            -2.3772     0.1073     0.0253 C.ar    
   5 C5            -3.6046    -0.5181     0.0337 C.ar    
   6 C6            -3.6781    -1.9066     0.0269 C.ar    
   7 C7            -2.4911    -2.6635     0.0115 C.ar    
   8 C8            -1.2513    -2.0173    -0.0025 C.ar    
   9 C9            -2.8992    -4.0671     0.0079 C.2     
  10 C10           -1.9866    -5.2663    -0.0068 C.3     
  11 C11           -4.2559    -4.0852     0.0208 C.2     
  12 N12           -4.7336    -2.7950     0.0322 N.pl3   
  13 C13           -5.0921    -5.3037     0.0212 C.ar    
  14 C14           -6.1843    -5.4013     0.8862 C.ar    
  15 C15           -6.9630    -6.5367     0.8856 C.ar    
  16 C16           -6.6612    -7.5896     0.0218 C.ar    
  17 C17           -5.5705    -7.4930    -0.8425 C.ar    
  18 C18           -4.7941    -6.3560    -0.8474 C.ar    
  19 C19           -7.5000    -8.8124     0.0226 C.ar    
  20 C20           -7.2011    -9.8663    -0.8394 C.ar    
  21 C21           -7.9850   -11.0021    -0.8339 C.ar    
  22 C22           -9.0655   -11.0959     0.0247 C.ar    
  23 C23           -9.3668   -10.0532     0.8823 C.ar    
  24 C24           -8.5869    -8.9147     0.8894 C.ar    
  25 H25            1.0053     1.8021     0.0021 H       
  26 H26           -0.5445     1.7859    -0.8732 H       
  27 H27           -0.5275     1.7763     0.9067 H       
  28 H28           -2.3267     1.1861     0.0310 H       
  29 H29           -4.5101     0.0703     0.0459 H       
  30 H30           -0.3383    -2.5941    -0.0143 H       
  31 H31           -1.7567    -5.5605     1.0172 H       
  32 H32           -2.4796    -6.0918    -0.5201 H       
  33 H33           -1.0633    -5.0138    -0.5282 H       
  34 H34           -5.6714    -2.5473     0.0428 H       
  35 H35           -6.4178    -4.5866     1.5556 H       
  36 H36           -7.8077    -6.6124     1.5544 H       
  37 H37           -5.3376    -8.3087    -1.5110 H       
  38 H38           -3.9499    -6.2813    -1.5169 H       
  39 H39           -6.3580    -9.7941    -1.5105 H       
  40 H40           -7.7546   -11.8192    -1.5016 H       
  41 H41           -9.6763   -11.9865     0.0253 H       
  42 H42          -10.2116   -10.1319     1.5506 H       
  43 H43           -8.8230    -8.1012     1.5593 H       
@<TRIPOS>BOND
   1    1    2 1
   2    1   25 1
   3    1   26 1
   4    1   27 1
   5    2    3 1
   6    3    4 ar
   7    3    8 ar
   8    4    5 ar
   9    4   28 1
  10    5    6 ar
  11    5   29 1
  12    6    7 ar
  13    6   12 1
  14    7    8 ar
  15    7    9 1
  16    8   30 1
  17    9   10 1
  18    9   11 2
  19   10   31 1
  20   10   32 1
  21   10   33 1
  22   11   12 1
  23   11   13 1
  24   12   34 1
  25   13   14 ar
  26   13   18 ar
  27   14   15 ar
  28   14   35 1
  29   15   16 ar
  30   15   36 1
  31   16   17 ar
  32   16   19 1
  33   17   18 ar
  34   17   37 1
  35   18   38 1
  36   19   20 ar
  37   19   24 ar
  38   20   21 ar
  39   20   39 1
  40   21   22 ar
  41   21   40 1
  42   22   23 ar
  43   22   41 1
  44   23   24 ar
  45   23   42 1
  46   24   43 1

#	End of record

