#	Name: ASD04840061
#	Creating user name:	WinNT
#	Creation time:	15. 06. 2019 20:52

#	Modifying user name:	WinNT
#	Modification time:	15. 06. 2019 20:52

#	Program:	/corina/corina34_cracker 3.40 0067  02.08.2006

@<TRIPOS>MOLECULE
ASD04840061
  47   50    0    0    0
SMALL
NO_CHARGES


@<TRIPOS>ATOM
   1 C1             0.0578     1.1629    -0.5260 C.ar    
   2 C2             0.0142    -0.2369    -0.6433 C.ar    
   3 C3             1.1667    -0.9320    -0.8451 C.ar    
   4 C4             2.3932    -0.2764    -0.9376 C.ar    
   5 C5             2.4740     1.0777    -0.8284 C.ar    
   6 C6             1.3049     1.8294    -0.6201 C.ar    
   7 C7             1.3486     3.2292    -0.5030 C.ar    
   8 C8             0.1961     3.9243    -0.3011 C.ar    
   9 C9            -1.0304     3.2688    -0.2084 C.ar    
  10 C10           -1.1118     1.9151    -0.3228 C.ar    
  11 C11           -2.4483     1.2257    -0.2250 C.3     
  12 O12           -3.4730     2.2002    -0.0197 O.3     
  13 C13           -4.7452     1.7423     0.0906 C.ar    
  14 C14           -5.8045     2.6424     0.2935 C.ar    
  15 C15           -7.1134     2.1604     0.4062 C.ar    
  16 C16           -7.3594     0.8209     0.3191 C.ar    
  17 C17           -6.3118    -0.0762     0.1183 C.ar    
  18 C18           -5.0068     0.3871    -0.0018 C.ar    
  19 C19           -5.5388     4.0858     0.3878 C.2     
  20 O20           -6.5571     4.9473     0.5825 O.3     
  21 O21           -4.4009     4.5020     0.2901 O.2     
  22 N22           -6.5738    -1.4394     0.0315 N.pl3   
  23 C23           -7.6527    -1.9892     0.7287 C.ar    
  24 C24           -8.3110    -3.1044     0.2258 C.ar    
  25 C25           -9.3767    -3.6455     0.9177 C.ar    
  26 C26           -9.7889    -3.0782     2.1096 C.ar    
  27 C27           -9.1362    -1.9678     2.6128 C.ar    
  28 C28           -8.0659    -1.4253     1.9292 C.ar    
  29 H29           -0.9290    -0.7584    -0.5732 H       
  30 H30            1.1305    -2.0076    -0.9346 H       
  31 H31            3.2931    -0.8517    -1.0981 H       
  32 H32            3.4314     1.5720    -0.9015 H       
  33 H33            2.2919     3.7506    -0.5724 H       
  34 H34            0.2325     4.9999    -0.2111 H       
  35 H35           -1.9302     3.8441    -0.0476 H       
  36 H36           -2.6446     0.6810    -1.1485 H       
  37 H37           -2.4369     0.5283     0.6127 H       
  38 H38           -7.9301     2.8496     0.5626 H       
  39 H39           -8.3714     0.4539     0.4066 H       
  40 H40           -4.1979    -0.3102    -0.1622 H       
  41 H41           -6.3333     5.8864     0.6379 H       
  42 H42           -6.0076    -2.0084    -0.5130 H       
  43 H43           -7.9900    -3.5474    -0.7054 H       
  44 H44           -9.8889    -4.5124     0.5273 H       
  45 H45          -10.6228    -3.5032     2.6485 H       
  46 H46           -9.4612    -1.5268     3.5436 H       
  47 H47           -7.5537    -0.5607     2.3250 H       
@<TRIPOS>BOND
   1    1    2 ar
   2    1    6 ar
   3    1   10 ar
   4    2    3 ar
   5    2   29 1
   6    3    4 ar
   7    3   30 1
   8    4    5 ar
   9    4   31 1
  10    5    6 ar
  11    5   32 1
  12    6    7 ar
  13    7    8 ar
  14    7   33 1
  15    8    9 ar
  16    8   34 1
  17    9   10 ar
  18    9   35 1
  19   10   11 1
  20   11   12 1
  21   11   36 1
  22   11   37 1
  23   12   13 1
  24   13   14 ar
  25   13   18 ar
  26   14   15 ar
  27   14   19 1
  28   15   16 ar
  29   15   38 1
  30   16   17 ar
  31   16   39 1
  32   17   18 ar
  33   17   22 1
  34   18   40 1
  35   19   20 1
  36   19   21 2
  37   20   41 1
  38   22   23 1
  39   22   42 1
  40   23   24 ar
  41   23   28 ar
  42   24   25 ar
  43   24   43 1
  44   25   26 ar
  45   25   44 1
  46   26   27 ar
  47   26   45 1
  48   27   28 ar
  49   27   46 1
  50   28   47 1

#	End of record

