#	Name: ASD02500295
#	Creating user name:	WinNT
#	Creation time:	15. 06. 2019 20:22

#	Modifying user name:	WinNT
#	Modification time:	15. 06. 2019 20:22

#	Program:	/corina/corina34_cracker 3.40 0067  02.08.2006

@<TRIPOS>MOLECULE
ASD02500295
  67   71    0    0    0
SMALL
NO_CHARGES


@<TRIPOS>ATOM
   1 N1            -3.1084     2.6850     1.7858 N.ar    
   2 C2            -3.7249     1.5409     1.9569 C.ar    
   3 C3            -3.7868     0.9205     3.2030 C.ar    
   4 C4            -3.1947     1.5055     4.2858 C.ar    
   5 C5            -2.5331     2.7339     4.0982 C.ar    
   6 C6            -1.9019     3.3946     5.1640 C.ar    
   7 C7            -1.2728     4.5817     4.9418 C.ar    
   8 C8            -1.2472     5.1501     3.6701 C.ar    
   9 C9            -1.8487     4.5368     2.6144 C.ar    
  10 C10           -2.5084     3.3102     2.8038 C.ar    
  11 S11           -1.8017     5.2783     1.0167 S.o2    
  12 O12           -3.1202     5.1899     0.4944 O.2     
  13 O13           -1.1054     6.5080     1.1654 O.2     
  14 N14           -0.8535     4.3170     0.0580 N.am    
  15 C15           -1.2376     3.0078    -0.2102 C.ar    
  16 C16           -2.2784     2.7578    -1.1004 C.ar    
  17 C17           -2.6609     1.4632    -1.3678 C.ar    
  18 C18           -2.0032     0.3987    -0.7445 C.ar    
  19 C19           -0.9585     0.6531     0.1489 C.ar    
  20 C20           -0.5769     1.9496     0.4078 C.ar    
  21 C21           -2.4111    -0.9903    -1.0286 C.2     
  22 O22           -3.5820    -1.2516    -1.2267 O.2     
  23 N23           -1.4859    -1.9695    -1.0687 N.am    
  24 C24           -0.0700    -1.7145    -0.6986 C.3     
  25 C25            0.1687    -2.1657     0.6679 C.3     
  26 N26           -0.2495    -3.5845     0.8055 N.am    
  27 C27           -1.6367    -3.8351     0.9853 C.3     
  28 C28           -2.4109    -4.1857    -0.3273 C.3     
  29 C29           -1.8228    -3.2931    -1.4611 C.3     
  30 C30            0.6471    -4.5898     0.7613 C.2     
  31 C31            0.2330    -5.9646     1.1077 C.ar    
  32 C32            1.1876    -6.9081     1.4963 C.ar    
  33 C33            0.7891    -8.1974     1.8199 C.ar    
  34 C34           -0.5516    -8.5454     1.7566 C.ar    
  35 C35           -1.4975    -7.6117     1.3715 C.ar    
  36 C36           -1.1153    -6.3255     1.0538 C.ar    
  37 O37            1.7968    -4.3650     0.4363 O.2     
  38 O38            1.7136    -9.1197     2.1986 O.3     
  39 C39            1.2328   -10.4271     2.5175 C.3     
  40 F40            2.4934    -6.5667     1.5562 F       
  41 H41           -4.1977     1.0668     1.1095 H       
  42 H42           -4.3029    -0.0218     3.3125 H       
  43 H43           -3.2332     1.0388     5.2590 H       
  44 H44           -1.9156     2.9642     6.1544 H       
  45 H45           -0.7875     5.0893     5.7623 H       
  46 H46           -0.7422     6.0929     3.5197 H       
  47 H47           -0.0301     4.6672    -0.3166 H       
  48 H48           -2.7864     3.5806    -1.5813 H       
  49 H49           -3.4686     1.2699    -2.0582 H       
  50 H50           -0.4487    -0.1672     0.6322 H       
  51 H51            0.2332     2.1467     1.0942 H       
  52 H52            0.5863    -2.2565    -1.3795 H       
  53 H53            0.1369    -0.6466    -0.7694 H       
  54 H54            1.2300    -2.0762     0.8994 H       
  55 H55           -0.4062    -1.5494     1.3591 H       
  56 H56           -1.7499    -4.6637     1.6844 H       
  57 H57           -2.0926    -2.9498     1.4287 H       
  58 H58           -2.2696    -5.2386    -0.5713 H       
  59 H59           -3.4723    -3.9727    -0.2001 H       
  60 H60           -2.5570    -3.2382    -2.2649 H       
  61 H61           -0.9265    -3.7763    -1.8500 H       
  62 H62           -0.8589    -9.5496     2.0087 H       
  63 H63           -2.5398    -7.8903     1.3239 H       
  64 H64           -1.8576    -5.5987     0.7588 H       
  65 H65            0.7338   -10.8530     1.6470 H       
  66 H66            2.0709   -11.0628     2.8030 H       
  67 H67            0.5270   -10.3627     3.3456 H       
@<TRIPOS>BOND
   1    1    2 ar
   2    1   10 ar
   3    2    3 ar
   4    2   41 1
   5    3    4 ar
   6    3   42 1
   7    4    5 ar
   8    4   43 1
   9    5    6 ar
  10    5   10 ar
  11    6    7 ar
  12    6   44 1
  13    7    8 ar
  14    7   45 1
  15    8    9 ar
  16    8   46 1
  17    9   10 ar
  18    9   11 1
  19   11   12 2
  20   11   13 2
  21   11   14 am
  22   14   15 1
  23   14   47 1
  24   15   16 ar
  25   15   20 ar
  26   16   17 ar
  27   16   48 1
  28   17   18 ar
  29   17   49 1
  30   18   19 ar
  31   18   21 1
  32   19   20 ar
  33   19   50 1
  34   20   51 1
  35   21   22 2
  36   21   23 am
  37   23   24 1
  38   23   29 1
  39   24   25 1
  40   24   52 1
  41   24   53 1
  42   25   26 1
  43   25   54 1
  44   25   55 1
  45   26   27 1
  46   26   30 am
  47   27   28 1
  48   27   56 1
  49   27   57 1
  50   28   29 1
  51   28   58 1
  52   28   59 1
  53   29   60 1
  54   29   61 1
  55   30   31 1
  56   30   37 2
  57   31   32 ar
  58   31   36 ar
  59   32   33 ar
  60   32   40 1
  61   33   34 ar
  62   33   38 1
  63   34   35 ar
  64   34   62 1
  65   35   36 ar
  66   35   63 1
  67   36   64 1
  68   38   39 1
  69   39   65 1
  70   39   66 1
  71   39   67 1

#	End of record

