#	Name: ASD01209057
#	Creating user name:	WinNT
#	Creation time:	15. 06. 2019 19:10

#	Modifying user name:	WinNT
#	Modification time:	15. 06. 2019 19:10

#	Program:	/corina/corina34_cracker 3.40 0067  02.08.2006

@<TRIPOS>MOLECULE
ASD01209057
  48   49    0    0    0
SMALL
NO_CHARGES


@<TRIPOS>ATOM
   1 C1             0.0991     1.3703     0.3418 C.ar    
   2 C2             0.1339    -0.0075     0.2229 C.ar    
   3 C3            -1.0364    -0.7127     0.0133 C.ar    
   4 C4            -2.2413    -0.0414    -0.0774 C.ar    
   5 C5            -2.2767     1.3357     0.0413 C.ar    
   6 C6            -1.1080     2.0413     0.2561 C.ar    
   7 S7             1.6698    -0.8634     0.3380 S.o2    
   8 O8             2.2536    -0.3758     1.5383 O.2     
   9 O9             1.3190    -2.2332     0.1977 O.2     
  10 C10           -3.5907     2.0668    -0.0577 C.3     
  11 C11           -3.5400     3.0374    -1.2095 C.2     
  12 C12           -4.8002     3.3818    -1.9607 C.3     
  13 O13           -2.4895     3.5391    -1.5305 O.2     
  14 C14           -5.4800     4.5794    -1.2941 C.3     
  15 C15           -4.4510     3.7341    -3.4081 C.3     
  16 C16           -3.8483     2.8312     1.2423 C.3     
  17 C17           -4.0185     1.8374     2.3931 C.3     
  18 C18           -4.1407     2.5928     3.7282 C.3     
  19 C19           -5.5205     2.2302     4.3150 C.3     
  20 C20           -5.8681     0.8717     3.6570 C.3     
  21 C21           -5.3284     1.0423     2.2152 C.3     
  22 Cl22           1.5684     2.2564     0.6056 Cl      
  23 C23            2.6128    -0.2969    -1.1043 C.3     
  24 H24           -1.0093    -1.7883    -0.0799 H       
  25 H25           -3.1553    -0.5927    -0.2416 H       
  26 H26           -1.1358     3.1169     0.3489 H       
  27 H27           -4.3943     1.3491    -0.2226 H       
  28 H28           -5.4761     2.5268    -1.9478 H       
  29 H29           -5.6767     4.3492    -0.2470 H       
  30 H30           -4.8272     5.4499    -1.3583 H       
  31 H31           -6.4206     4.7924    -1.8022 H       
  32 H32           -3.9666     2.8808    -3.8829 H       
  33 H33           -5.3625     3.9832    -3.9514 H       
  34 H34           -3.7751     4.5891    -3.4210 H       
  35 H35           -3.0037     3.4878     1.4512 H       
  36 H36           -4.7552     3.4272     1.1398 H       
  37 H37           -3.1686     1.1558     2.4262 H       
  38 H38           -3.3506     2.2770     4.4094 H       
  39 H39           -4.0787     3.6673     3.5562 H       
  40 H40           -5.4587     2.1248     5.3981 H       
  41 H41           -6.2597     2.9847     4.0457 H       
  42 H42           -5.3578     0.0542     4.1663 H       
  43 H43           -6.9461     0.7107     3.6495 H       
  44 H44           -6.0366     1.6048     1.6069 H       
  45 H45           -5.1264     0.0699     1.7660 H       
  46 H46            2.7442     0.7839    -1.0509 H       
  47 H47            3.5891    -0.7816    -1.1134 H       
  48 H48            2.0718    -0.5525    -2.0154 H       
@<TRIPOS>BOND
   1    1    2 ar
   2    1   22 1
   3    1    6 ar
   4    2    3 ar
   5    2    7 1
   6    3    4 ar
   7    3   24 1
   8    4    5 ar
   9    4   25 1
  10    5    6 ar
  11    5   10 1
  12    6   26 1
  13    7    8 2
  14    7    9 2
  15    7   23 1
  16   10   11 1
  17   10   16 1
  18   10   27 1
  19   11   12 1
  20   11   13 2
  21   12   14 1
  22   12   15 1
  23   12   28 1
  24   14   29 1
  25   14   30 1
  26   14   31 1
  27   15   32 1
  28   15   33 1
  29   15   34 1
  30   16   17 1
  31   16   35 1
  32   16   36 1
  33   17   18 1
  34   17   21 1
  35   17   37 1
  36   18   19 1
  37   18   38 1
  38   18   39 1
  39   19   20 1
  40   19   40 1
  41   19   41 1
  42   20   21 1
  43   20   42 1
  44   20   43 1
  45   21   44 1
  46   21   45 1
  47   23   46 1
  48   23   47 1
  49   23   48 1

#	End of record

