#	Name: ASD01885510
#	Creating user name:	WinNT
#	Creation time:	15. 06. 2019 19:49

#	Modifying user name:	WinNT
#	Modification time:	15. 06. 2019 19:49

#	Program:	/corina/corina34_cracker 3.40 0067  02.08.2006

@<TRIPOS>MOLECULE
ASD01885510
  48   50    0    0    0
SMALL
NO_CHARGES


@<TRIPOS>ATOM
   1 C1             0.1980     1.2188     0.1469 C.ar    
   2 C2             0.3131    -0.1711     0.1695 C.ar    
   3 N3            -0.7469    -1.0163     0.2367 N.2     
   4 C4            -1.8526    -0.9017    -0.4037 C.2     
   5 C5            -2.1206     0.2633    -1.3200 C.3     
   6 C6            -2.1108     1.5238    -0.4927 C.2     
   7 N7            -1.0167     1.8913     0.1731 N.am    
   8 C8             1.3514     2.0002     0.0891 C.ar    
   9 C9             2.6035     1.4108     0.0487 C.ar    
  10 C10            2.7191     0.0244     0.0656 C.ar    
  11 C11            1.5909    -0.7571     0.1253 C.ar    
  12 C12           -2.8872    -1.9370    -0.2389 C.ar    
  13 O13           -3.1085     2.2110    -0.4344 O.2     
  14 C14           -2.6194    -3.0817     0.5191 C.ar    
  15 C15           -3.5883    -4.0528     0.6737 C.ar    
  16 C16           -4.8270    -3.9023     0.0826 C.ar    
  17 C17           -5.1094    -2.7636    -0.6773 C.ar    
  18 C18           -4.1394    -1.7760    -0.8338 C.ar    
  19 N19            3.7509     2.2081    -0.0096 N.am    
  20 C20           -6.3949    -2.6101    -1.2893 C.1     
  21 N21           -7.4147    -2.4883    -1.7747 N.1     
  22 O22            6.0120     2.5250     0.4713 O.3     
  23 C23            7.1866     2.0427     1.1755 C.3     
  24 C24            7.5227     0.6285     0.6981 C.3     
  25 C25            8.3688     2.9714     0.8910 C.3     
  26 C26            6.9062     2.0202     2.6794 C.3     
  27 C27            4.8774     1.8148     0.6172 C.2     
  28 O28            4.8691     0.8192     1.3138 O.2     
  29 H29           -1.3438     0.3177    -2.0827 H       
  30 H30           -3.0946     0.1420    -1.7941 H       
  31 H31           -1.0732     2.6895     0.7214 H       
  32 H32            1.2672     3.0768     0.0754 H       
  33 H33            3.6950    -0.4370     0.0317 H       
  34 H34            1.6861    -1.8328     0.1380 H       
  35 H35           -1.6526    -3.2062     0.9840 H       
  36 H36           -3.3762    -4.9349     1.2597 H       
  37 H37           -5.5797    -4.6666     0.2074 H       
  38 H38           -4.3523    -0.8942    -1.4199 H       
  39 H39            3.7360     3.0442    -0.5011 H       
  40 H40            7.7224     0.6446    -0.3733 H       
  41 H41            8.4045     0.2665     1.2267 H       
  42 H42            6.6804    -0.0331     0.9007 H       
  43 H43            8.1295     3.9789     1.2312 H       
  44 H44            9.2506     2.6094     1.4197 H       
  45 H45            8.5686     2.9875    -0.1804 H       
  46 H46            6.0640     1.3586     2.8821 H       
  47 H47            7.7880     1.6581     3.2080 H       
  48 H48            6.6668     3.0277     3.0195 H       
@<TRIPOS>BOND
   1    1    2 ar
   2    1    8 ar
   3    1    7 1
   4    2    3 1
   5    2   11 ar
   6    3    4 2
   7    4    5 1
   8    4   12 1
   9    5    6 1
  10    5   29 1
  11    5   30 1
  12    6    7 am
  13    6   13 2
  14    7   31 1
  15    8    9 ar
  16    8   32 1
  17    9   10 ar
  18    9   19 1
  19   10   11 ar
  20   10   33 1
  21   11   34 1
  22   12   14 ar
  23   12   18 ar
  24   14   15 ar
  25   14   35 1
  26   15   16 ar
  27   15   36 1
  28   16   17 ar
  29   16   37 1
  30   17   20 1
  31   17   18 ar
  32   18   38 1
  33   19   27 am
  34   19   39 1
  35   20   21 3
  36   22   23 1
  37   22   27 1
  38   23   24 1
  39   23   25 1
  40   23   26 1
  41   24   40 1
  42   24   41 1
  43   24   42 1
  44   25   43 1
  45   25   44 1
  46   25   45 1
  47   26   46 1
  48   26   47 1
  49   26   48 1
  50   27   28 2

#	End of record

