#	Name: ASD08830040
#	Creating user name:	WinNT
#	Creation time:	15. 06. 2019 21:19

#	Modifying user name:	WinNT
#	Modification time:	15. 06. 2019 21:19

#	Program:	/corina/corina34_cracker 3.40 0067  02.08.2006

@<TRIPOS>MOLECULE
ASD08830040
  46   47    0    0    0
SMALL
NO_CHARGES


@<TRIPOS>ATOM
   1 C1             0.1241     1.9521     0.4371 C.ar    
   2 C2             0.0626     0.5523     0.6591 C.ar    
   3 C3             1.3686     2.5676     0.2043 C.ar    
   4 C4             2.5028     1.8240     0.1920 C.ar    
   5 C5             2.4563     0.4327     0.4105 C.ar    
   6 C6             1.2443    -0.2026     0.6432 C.ar    
   7 C7             3.7002    -0.3515     0.3913 C.2     
   8 C8             5.0188     0.3330     0.1385 C.3     
   9 C9             6.1452    -0.7019     0.1709 C.3     
  10 N10            7.4305    -0.0346    -0.0754 N.3     
  11 O11            3.6649    -1.5491     0.5788 O.2     
  12 C12            8.5542    -0.9455     0.1806 C.3     
  13 C13           -1.0630     2.7018     0.4479 C.ar    
  14 C14           -1.1846    -0.0551     0.8911 C.ar    
  15 C15           -2.3133     0.7058     0.8996 C.ar    
  16 C16           -2.2535     2.0787     0.6703 C.ar    
  17 C17            7.4905     0.5047    -1.4405 C.3     
  18 C18            8.8990    -0.9236     1.6711 C.3     
  19 C19            8.6959     1.4384    -1.5675 C.3     
  20 C20            7.6301    -0.6469    -2.4382 C.3     
  21 C21            8.1632    -2.3661    -0.2316 C.3     
  22 H22            1.4202     3.6330     0.0348 H       
  23 H23            3.4533     2.3041     0.0123 H       
  24 H24            1.2116    -1.2691     0.8104 H       
  25 H25            4.9964     0.8152    -0.8387 H       
  26 H26            5.1924     1.0833     0.9100 H       
  27 H27            6.1676    -1.1841     1.1482 H       
  28 H28            5.9716    -1.4521    -0.6005 H       
  29 H29            9.4208    -0.6249    -0.3975 H       
  30 H30           -1.0322     3.7684     0.2808 H       
  31 H31           -1.2465    -1.1198     1.0612 H       
  32 H32           -3.2699     0.2371     1.0776 H       
  33 H33           -3.1637     2.6600     0.6827 H       
  34 H34            6.5768     1.0601    -1.6523 H       
  35 H35            8.0083    -1.1592     2.2536 H       
  36 H36            9.6732    -1.6630     1.8758 H       
  37 H37            9.2611     0.0672     1.9457 H       
  38 H38            9.6147     0.8631    -1.4532 H       
  39 H39            8.6850     1.9146    -2.5479 H       
  40 H40            8.6469     2.2026    -0.7918 H       
  41 H41            6.7713    -1.3120    -2.3477 H       
  42 H42            7.6746    -0.2467    -3.4511 H       
  43 H43            8.5438    -1.2023    -2.2264 H       
  44 H44            7.2966    -2.6867     0.3466 H       
  45 H45            7.9176    -2.3817    -1.2934 H       
  46 H46            8.9970    -3.0420    -0.0416 H       
@<TRIPOS>BOND
   1    1    2 ar
   2    1    3 ar
   3    1   13 ar
   4    2   14 ar
   5    2    6 ar
   6    3    4 ar
   7    3   22 1
   8    4    5 ar
   9    4   23 1
  10    5    6 ar
  11    5    7 1
  12    6   24 1
  13    7    8 1
  14    7   11 2
  15    8    9 1
  16    8   25 1
  17    8   26 1
  18    9   10 1
  19    9   27 1
  20    9   28 1
  21   10   12 1
  22   10   17 1
  23   12   18 1
  24   12   21 1
  25   12   29 1
  26   13   16 ar
  27   13   30 1
  28   14   15 ar
  29   14   31 1
  30   15   16 ar
  31   15   32 1
  32   16   33 1
  33   17   19 1
  34   17   20 1
  35   17   34 1
  36   18   35 1
  37   18   36 1
  38   18   37 1
  39   19   38 1
  40   19   39 1
  41   19   40 1
  42   20   41 1
  43   20   42 1
  44   20   43 1
  45   21   44 1
  46   21   45 1
  47   21   46 1

#	End of record

