#	Name: ASD04590834
#	Creating user name:	WinNT
#	Creation time:	15. 06. 2019 20:51

#	Modifying user name:	WinNT
#	Modification time:	15. 06. 2019 20:51

#	Program:	/corina/corina34_cracker 3.40 0067  02.08.2006

@<TRIPOS>MOLECULE
ASD04590834
  59   64    0    0    0
SMALL
NO_CHARGES


@<TRIPOS>ATOM
   1 N1            -0.0170     1.3232    -0.0111 N.ar    
   2 C2             0.0017    -0.0035    -0.0048 C.ar    
   3 N3             1.1298    -0.6949    -0.0122 N.ar    
   4 C4             2.3050    -0.0728    -0.0263 C.ar    
   5 C5             2.3189     1.3367    -0.0332 C.ar    
   6 C6             1.1072     2.0203    -0.0250 C.ar    
   7 N7             3.6029    -0.5190    -0.0364 N.pl3   
   8 C8             4.4817     0.5513    -0.0499 C.ar    
   9 C9             3.7312     1.7388    -0.0485 C.ar    
  10 C10            5.8705     0.6464    -0.0631 C.ar    
  11 N11            6.4581     1.8275    -0.0740 N.ar    
  12 C12            5.7743     2.9589    -0.0729 C.ar    
  13 C13            4.4067     2.9600    -0.0612 C.ar    
  14 N14           -1.2020    -0.6888     0.0103 N.pl3   
  15 C15           -2.4018     0.0119     0.1313 C.ar    
  16 N16           -2.3891     1.3196     0.3319 N.ar    
  17 N17           -3.4689     2.0035     0.4485 N.ar    
  18 C18           -4.6659     1.4478     0.3761 C.ar    
  19 C19           -4.7827     0.0748     0.1666 C.ar    
  20 C20           -3.6190    -0.6634     0.0353 C.ar    
  21 O21           -5.7799     2.2132     0.5060 O.3     
  22 C22           -6.7599     4.3886     0.1216 C.3     
  23 C23           -5.5844     3.6126     0.7191 C.3     
  24 C24            4.0023    -1.9285    -0.0330 C.3     
  25 C25            3.4620    -2.6263     1.2276 C.3     
  26 C26            2.5295    -3.7548     0.7411 C.3     
  27 C27            3.0218    -4.0618    -0.6950 C.3     
  28 C28            3.3792    -2.6572    -1.2414 C.3     
  29 C29           -6.5505     5.8869     0.3498 C.3     
  30 C30           -6.4652     6.1670     1.8516 C.3     
  31 C31           -5.2897     5.3910     2.4491 C.3     
  32 C32           -5.4991     3.8927     2.2209 C.3     
  33 F33            6.6208    -0.4771    -0.0643 F       
  34 H34            1.0848     3.1000    -0.0300 H       
  35 H35            6.3053     3.8994    -0.0818 H       
  36 H36            3.8585     3.8905    -0.0608 H       
  37 H37           -1.2104    -1.6560    -0.0632 H       
  38 H38           -5.7516    -0.3982     0.1044 H       
  39 H39           -3.6522    -1.7304    -0.1287 H       
  40 H40           -6.8207     4.1890    -0.9482 H       
  41 H41           -7.6856     4.0736     0.6032 H       
  42 H42           -4.6587     3.9276     0.2376 H       
  43 H43            5.0888    -2.0085    -0.0674 H       
  44 H44            4.2863    -3.0457     1.8044 H       
  45 H45            2.9027    -1.9163     1.8367 H       
  46 H46            2.6323    -4.6349     1.3759 H       
  47 H47            1.4943    -3.4138     0.7248 H       
  48 H48            3.9029    -4.7032    -0.6725 H       
  49 H49            2.2272    -4.5159    -1.2870 H       
  50 H50            2.4812    -2.1390    -1.5779 H       
  51 H51            4.1020    -2.7364    -2.0534 H       
  52 H52           -5.6248     6.2020    -0.1317 H       
  53 H53           -7.3879     6.4398    -0.0759 H       
  54 H54           -6.3160     7.2345     2.0141 H       
  55 H55           -7.3909     5.8520     2.3331 H       
  56 H56           -4.3640     5.7061     1.9675 H       
  57 H57           -5.2289     5.5906     3.5189 H       
  58 H58           -6.4248     3.5777     2.7024 H       
  59 H59           -4.6617     3.3398     2.6466 H       
@<TRIPOS>BOND
   1    1    2 ar
   2    1    6 ar
   3    2    3 ar
   4    2   14 1
   5    3    4 ar
   6    4    5 ar
   7    4    7 1
   8    5    6 ar
   9    5    9 1
  10    6   34 1
  11    7    8 1
  12    7   24 1
  13    8    9 ar
  14    8   10 ar
  15    9   13 ar
  16   10   11 ar
  17   10   33 1
  18   11   12 ar
  19   12   13 ar
  20   12   35 1
  21   13   36 1
  22   14   15 1
  23   14   37 1
  24   15   16 ar
  25   15   20 ar
  26   16   17 ar
  27   17   18 ar
  28   18   19 ar
  29   18   21 1
  30   19   20 ar
  31   19   38 1
  32   20   39 1
  33   21   23 1
  34   22   23 1
  35   22   29 1
  36   22   40 1
  37   22   41 1
  38   23   32 1
  39   23   42 1
  40   24   25 1
  41   24   28 1
  42   24   43 1
  43   25   26 1
  44   25   44 1
  45   25   45 1
  46   26   27 1
  47   26   46 1
  48   26   47 1
  49   27   28 1
  50   27   48 1
  51   27   49 1
  52   28   50 1
  53   28   51 1
  54   29   30 1
  55   29   52 1
  56   29   53 1
  57   30   31 1
  58   30   54 1
  59   30   55 1
  60   31   32 1
  61   31   56 1
  62   31   57 1
  63   32   58 1
  64   32   59 1

#	End of record

