#	Name: ASD01911106
#	Creating user name:	WinNT
#	Creation time:	15. 06. 2019 19:57

#	Modifying user name:	WinNT
#	Modification time:	15. 06. 2019 19:57

#	Program:	/corina/corina34_cracker 3.40 0067  02.08.2006

@<TRIPOS>MOLECULE
ASD01911106
  49   52    0    0    0
SMALL
NO_CHARGES


@<TRIPOS>ATOM
   1 C1            -0.2000     1.1534     1.1163 C.2     
   2 O2            -0.3536    -0.0471     0.9998 O.2     
   3 N3             1.0392     1.6816     1.0732 N.am    
   4 C4             2.2204     0.8128     0.9805 C.3     
   5 C5             3.1861     1.1709     2.1145 C.3     
   6 C6             3.5006     2.6676     2.0577 C.3     
   7 C7             2.2112     3.4692     2.2502 C.3     
   8 C8             1.2342     3.1373     1.1121 C.3     
   9 O9             5.2931     0.4179     0.9120 O.3     
  10 N10            6.2255    -0.3348     1.1001 N.2     
  11 C11            6.1014    -0.9238     2.2577 C.2     
  12 N12            4.9635    -0.4665     2.8198 N.2     
  13 C13            4.4609     0.3827     1.9572 C.2     
  14 O14            6.9573    -1.8276     2.7958 O.3     
  15 C15            8.1230    -2.0709     2.1410 C.ar    
  16 C16            8.4885    -1.2853     1.0574 C.ar    
  17 C17            9.6739    -1.5347     0.3934 C.ar    
  18 C18           10.4958    -2.5666     0.8076 C.ar    
  19 C19           10.1337    -3.3513     1.8869 C.ar    
  20 C20            8.9525    -3.1018     2.5584 C.ar    
  21 C21           -1.3713     2.0329     1.2987 C.ar    
  22 C22           -1.4435     3.2528     0.6211 C.ar    
  23 C23           -2.5379     4.0705     0.7941 C.ar    
  24 C24           -3.5695     3.6841     1.6416 C.ar    
  25 C25           -3.5014     2.4714     2.3175 C.ar    
  26 C26           -2.4133     1.6452     2.1451 C.ar    
  27 O27           -4.6459     4.4932     1.8101 O.3     
  28 C28           -5.6698     4.0350     2.6955 C.3     
  29 H29            1.9158    -0.2295     1.0754 H       
  30 H30            2.7121     0.9659     0.0198 H       
  31 H31            2.7260     0.9319     3.0732 H       
  32 H32            4.2068     2.9204     2.8486 H       
  33 H33            3.9380     2.9103     1.0893 H       
  34 H34            1.7603     3.2085     3.2077 H       
  35 H35            2.4394     4.5349     2.2330 H       
  36 H36            1.6470     3.4761     0.1619 H       
  37 H37            0.2786     3.6293     1.2938 H       
  38 H38            7.8465    -0.4796     0.7330 H       
  39 H39            9.9588    -0.9234    -0.4501 H       
  40 H40           11.4220    -2.7602     0.2870 H       
  41 H41           10.7770    -4.1572     2.2080 H       
  42 H42            8.6724    -3.7120     3.4044 H       
  43 H43           -0.6420     3.5541    -0.0371 H       
  44 H44           -2.5945     5.0136     0.2707 H       
  45 H45           -4.3050     2.1747     2.9752 H       
  46 H46           -2.3634     0.7009     2.6668 H       
  47 H47           -6.0690     3.0886     2.3304 H       
  48 H48           -5.2515     3.8926     3.6919 H       
  49 H49           -6.4698     4.7740     2.7393 H       
@<TRIPOS>BOND
   1    1    2 2
   2    1    3 am
   3    1   21 1
   4    3    4 1
   5    3    8 1
   6    4    5 1
   7    4   29 1
   8    4   30 1
   9    5    6 1
  10    5   13 1
  11    5   31 1
  12    6    7 1
  13    6   32 1
  14    6   33 1
  15    7    8 1
  16    7   34 1
  17    7   35 1
  18    8   36 1
  19    8   37 1
  20    9   10 1
  21    9   13 1
  22   10   11 2
  23   11   12 1
  24   11   14 1
  25   12   13 2
  26   14   15 1
  27   15   16 ar
  28   15   20 ar
  29   16   17 ar
  30   16   38 1
  31   17   18 ar
  32   17   39 1
  33   18   19 ar
  34   18   40 1
  35   19   20 ar
  36   19   41 1
  37   20   42 1
  38   21   22 ar
  39   21   26 ar
  40   22   23 ar
  41   22   43 1
  42   23   24 ar
  43   23   44 1
  44   24   25 ar
  45   24   27 1
  46   25   26 ar
  47   25   45 1
  48   26   46 1
  49   27   28 1
  50   28   47 1
  51   28   48 1
  52   28   49 1

#	End of record

