#	Name: ASD01911871
#	Creating user name:	WinNT
#	Creation time:	15. 06. 2019 19:58

#	Modifying user name:	WinNT
#	Modification time:	15. 06. 2019 19:58

#	Program:	/corina/corina34_cracker 3.40 0067  02.08.2006

@<TRIPOS>MOLECULE
ASD01911871
  37   39    0    0    0
SMALL
NO_CHARGES


@<TRIPOS>ATOM
   1 C1            -3.1197    -0.6625    -1.4557 C.ar    
   2 C2            -2.2889    -0.0566    -0.5155 C.ar    
   3 C3            -2.5782     1.2348    -0.0936 C.ar    
   4 N4            -3.6225     1.8804    -0.5734 N.ar    
   5 C5            -4.4278     1.3350    -1.4637 C.ar    
   6 C6            -4.2054     0.0532    -1.9323 C.ar    
   7 N7            -1.1812    -0.7382    -0.0043 N.pl3   
   8 C8            -1.2027    -2.1316     0.0941 C.ar    
   9 C9            -0.0204    -2.8550    -0.0114 C.ar    
  10 C10           -0.0411    -4.2327     0.0858 C.ar    
  11 C11           -1.2362    -4.8964     0.2877 C.ar    
  12 C12           -2.4215    -4.1795     0.3936 C.ar    
  13 C13           -2.4037    -2.7948     0.3031 C.ar    
  14 N14           -3.6305    -4.8521     0.5975 N.am    
  15 C15           -3.8398    -6.0519     0.0204 C.2     
  16 C16           -5.1540    -6.7157     0.1510 C.ar    
  17 O17           -2.9477    -6.5882    -0.6076 O.2     
  18 C18           -5.3739    -7.9583    -0.4455 C.ar    
  19 C19           -6.6027    -8.5733    -0.3197 C.ar    
  20 C20           -7.6162    -7.9612     0.3954 C.ar    
  21 C21           -7.4053    -6.7283     0.9900 C.ar    
  22 C22           -6.1786    -6.1052     0.8764 C.ar    
  23 Cl23          -8.6836    -5.9682     1.8854 Cl      
  24 H24           -2.9195    -1.6638    -1.8074 H       
  25 H25           -1.9415     1.7145     0.6350 H       
  26 H26           -5.2732     1.8973    -1.8319 H       
  27 H27           -4.8707    -0.3848    -2.6616 H       
  28 H28           -0.3973    -0.2438     0.2822 H       
  29 H29            0.9152    -2.3393    -0.1700 H       
  30 H30            0.8789    -4.7924     0.0034 H       
  31 H31           -1.2488    -5.9737     0.3629 H       
  32 H32           -3.3238    -2.2352     0.3851 H       
  33 H33           -4.3185    -4.4551     1.1543 H       
  34 H34           -4.5839    -8.4373    -1.0048 H       
  35 H35           -6.7736    -9.5347    -0.7810 H       
  36 H36           -8.5763    -8.4467     0.4901 H       
  37 H37           -6.0148    -5.1438     1.3403 H       
@<TRIPOS>BOND
   1    1    2 ar
   2    1    6 ar
   3    1   24 1
   4    2    3 ar
   5    2    7 1
   6    3    4 ar
   7    3   25 1
   8    4    5 ar
   9    5    6 ar
  10    5   26 1
  11    6   27 1
  12    7    8 1
  13    7   28 1
  14    8    9 ar
  15    8   13 ar
  16    9   10 ar
  17    9   29 1
  18   10   11 ar
  19   10   30 1
  20   11   12 ar
  21   11   31 1
  22   12   13 ar
  23   12   14 1
  24   13   32 1
  25   14   15 am
  26   14   33 1
  27   15   16 1
  28   15   17 2
  29   16   18 ar
  30   16   22 ar
  31   18   19 ar
  32   18   34 1
  33   19   20 ar
  34   19   35 1
  35   20   21 ar
  36   20   36 1
  37   21   22 ar
  38   21   23 1
  39   22   37 1

#	End of record

