#	Name: ASD04910045
#	Creating user name:	WinNT
#	Creation time:	15. 06. 2019 20:55

#	Modifying user name:	WinNT
#	Modification time:	15. 06. 2019 20:55

#	Program:	/corina/corina34_cracker 3.40 0067  02.08.2006

@<TRIPOS>MOLECULE
ASD04910045
  59   61    0    0    0
SMALL
NO_CHARGES


@<TRIPOS>ATOM
   1 C1            -0.2905     1.3045     0.9764 C.2     
   2 C2            -0.2232    -0.1953     0.8452 C.3     
   3 C3             1.2358    -0.6287     0.6895 C.3     
   4 O4             0.7245     1.9595     0.9484 O.2     
   5 O5            -1.4783     1.9132     1.1189 O.3     
   6 C6             2.4934    -2.6974     0.4133 C.2     
   7 C7             2.5593    -4.1687     0.2845 C.ar    
   8 C8             3.7924    -4.8043     0.1304 C.ar    
   9 C9             3.8470    -6.1776     0.0113 C.ar    
  10 C10            2.6828    -6.9247     0.0438 C.ar    
  11 C11            1.4573    -6.3009     0.1963 C.ar    
  12 C12            1.3892    -4.9288     0.3223 C.ar    
  13 O13            3.5144    -2.0385     0.3851 O.2     
  14 N14            1.3011    -2.0867     0.5619 N.am    
  15 C15            2.7500    -8.4244    -0.0880 C.3     
  16 C16            2.4077    -8.8261    -1.5241 C.3     
  17 C17            2.6045   -10.3340    -1.6926 C.3     
  18 C18            2.1535   -10.7538    -3.0930 C.3     
  19 N19            1.7905    -9.0390     0.8329 N.pl3   
  20 C20            2.1581    -9.2948     2.1571 C.ar    
  21 C21            1.2952    -9.9887     2.9960 C.ar    
  22 C22            1.6587   -10.2416     4.3034 C.ar    
  23 C23            2.8866    -9.8025     4.7801 C.ar    
  24 C24            3.7492    -9.1085     3.9421 C.ar    
  25 C25            3.3888    -8.8602     2.6329 C.ar    
  26 N26            3.2558   -10.0597     6.1091 N.pl3   
  27 N27            2.4884   -10.7446     7.0601 N.2     
  28 C28            3.1650   -10.7848     8.1799 C.2     
  29 C29            4.3835   -10.1277     7.9791 C.2     
  30 C30            4.4174    -9.6955     6.6969 C.2     
  31 C31            5.4691    -9.9393     9.0071 C.3     
  32 F32            5.0758   -10.5277    10.2139 F       
  33 F33            6.6480   -10.5430     8.5565 F       
  34 F34            5.6915    -8.5724     9.2054 F       
  35 H35           -0.6464    -0.6574     1.7371 H       
  36 H36           -0.7909    -0.5091    -0.0308 H       
  37 H37            1.6590    -0.1666    -0.2024 H       
  38 H38            1.8035    -0.3149     1.5655 H       
  39 H39           -1.4709     2.8768     1.1994 H       
  40 H40            4.7017    -4.2222     0.1042 H       
  41 H41            4.8004    -6.6706    -0.1080 H       
  42 H42            0.5523    -6.8898     0.2209 H       
  43 H43            0.4324    -4.4434     0.4457 H       
  44 H44            0.4863    -2.6125     0.5844 H       
  45 H45            3.7563    -8.7658     0.1547 H       
  46 H46            1.3697    -8.5693    -1.7356 H       
  47 H47            3.0616    -8.2948    -2.2156 H       
  48 H48            3.6583   -10.5798    -1.5613 H       
  49 H49            2.0123   -10.8634    -0.9462 H       
  50 H50            2.2937   -11.8281    -3.2131 H       
  51 H51            1.0997   -10.5080    -3.2243 H       
  52 H52            2.7458   -10.2244    -3.8394 H       
  53 H53            0.9002    -9.2684     0.5237 H       
  54 H54            0.3399   -10.3300     2.6254 H       
  55 H55            0.9878   -10.7808     4.9557 H       
  56 H56            4.7039    -8.7664     4.3134 H       
  57 H57            4.0617    -8.3246     1.9798 H       
  58 H58            2.8384   -11.2453     9.1006 H       
  59 H59            5.2264    -9.1549     6.2281 H       
@<TRIPOS>BOND
   1    1    2 1
   2    1    4 2
   3    1    5 1
   4    2    3 1
   5    2   35 1
   6    2   36 1
   7    3   14 1
   8    3   37 1
   9    3   38 1
  10    5   39 1
  11    6    7 1
  12    6   13 2
  13    6   14 am
  14    7    8 ar
  15    7   12 ar
  16    8    9 ar
  17    8   40 1
  18    9   10 ar
  19    9   41 1
  20   10   11 ar
  21   10   15 1
  22   11   12 ar
  23   11   42 1
  24   12   43 1
  25   14   44 1
  26   15   16 1
  27   15   19 1
  28   15   45 1
  29   16   17 1
  30   16   46 1
  31   16   47 1
  32   17   18 1
  33   17   48 1
  34   17   49 1
  35   18   50 1
  36   18   51 1
  37   18   52 1
  38   19   20 1
  39   19   53 1
  40   20   21 ar
  41   20   25 ar
  42   21   22 ar
  43   21   54 1
  44   22   23 ar
  45   22   55 1
  46   23   24 ar
  47   23   26 1
  48   24   25 ar
  49   24   56 1
  50   25   57 1
  51   26   27 1
  52   26   30 1
  53   27   28 2
  54   28   29 1
  55   28   58 1
  56   29   30 2
  57   29   31 1
  58   30   59 1
  59   31   32 1
  60   31   33 1
  61   31   34 1

#	End of record

