#	Name: ASD03080109
#	Creating user name:	WinNT
#	Creation time:	15. 06. 2019 20:26

#	Modifying user name:	WinNT
#	Modification time:	15. 06. 2019 20:26

#	Program:	/corina/corina34_cracker 3.40 0067  02.08.2006

@<TRIPOS>MOLECULE
ASD03080109
  27   29    0    0    0
SMALL
NO_CHARGES


@<TRIPOS>ATOM
   1 N1             0.0175    -1.1399    -0.0042 N.1     
   2 C2             0.0021    -0.0041     0.0020 C.1     
   3 C3            -0.0173     1.4278     0.0099 C.ar    
   4 C4             1.1809     2.1449     0.0023 C.ar    
   5 C5             1.1589     3.5248     0.0100 C.ar    
   6 C6            -0.0463     4.2013     0.0252 C.ar    
   7 C7            -1.2443     3.4969     0.0333 C.ar    
   8 C8            -1.2338     2.1115     0.0194 C.ar    
   9 N9            -2.4640     4.1885     0.0491 N.pl3   
  10 N10           -3.6296     3.6423     0.0582 N.2     
  11 N11           -4.5266     4.5690     0.0725 N.2     
  12 C12           -3.8834     5.7454     0.0722 C.2     
  13 N13           -2.5937     5.4706     0.0625 N.2     
  14 C14           -4.5024     7.0945     0.0853 C.ar    
  15 C15           -5.8920     7.2377     0.1005 C.ar    
  16 C16           -6.4203     8.5175     0.1123 C.ar    
  17 C17           -5.5636     9.6028     0.1088 C.ar    
  18 N18           -4.2551     9.4361     0.0940 N.ar    
  19 C19           -3.7070     8.2383     0.0886 C.ar    
  20 H20            2.1245     1.6197    -0.0092 H       
  21 H21            2.0865     4.0778     0.0044 H       
  22 H22           -0.0571     5.2813     0.0311 H       
  23 H23           -2.1639     1.5626     0.0253 H       
  24 H24           -6.5378     6.3721     0.1025 H       
  25 H25           -7.4899     8.6665     0.1238 H       
  26 H26           -5.9721    10.6026     0.1180 H       
  27 H27           -2.6314     8.1421     0.0764 H       
@<TRIPOS>BOND
   1    1    2 3
   2    2    3 1
   3    3    4 ar
   4    3    8 ar
   5    4    5 ar
   6    4   20 1
   7    5    6 ar
   8    5   21 1
   9    6    7 ar
  10    6   22 1
  11    7    8 ar
  12    7    9 1
  13    8   23 1
  14    9   10 1
  15    9   13 1
  16   10   11 2
  17   11   12 1
  18   12   13 2
  19   12   14 1
  20   14   15 ar
  21   14   19 ar
  22   15   16 ar
  23   15   24 1
  24   16   17 ar
  25   16   25 1
  26   17   18 ar
  27   17   26 1
  28   18   19 ar
  29   19   27 1

#	End of record

