#	Name: ASD03331126
#	Creating user name:	WinNT
#	Creation time:	15. 06. 2019 20:38

#	Modifying user name:	WinNT
#	Modification time:	15. 06. 2019 20:38

#	Program:	/corina/corina34_cracker 3.40 0067  02.08.2006

@<TRIPOS>MOLECULE
ASD03331126
  53   52    0    0    0
SMALL
NO_CHARGES


@<TRIPOS>ATOM
   1 C1            -0.0187     1.5258     0.0104 C.3     
   2 C2             1.3960     3.5852     0.0080 C.3     
   3 C3             1.4167     2.0553    -0.0004 C.3     
   4 C4             2.8106     5.6446     0.0055 C.3     
   5 C5             2.8313     4.1148    -0.0029 C.3     
   6 C6             4.2460     6.1742    -0.0053 C.3     
   7 C7             4.2252     7.7040     0.0031 C.3     
   8 C8             5.6606     8.2336    -0.0078 C.3     
   9 C9             5.6399     9.7634     0.0006 C.3     
  10 C10            7.0753    10.2930    -0.0102 C.3     
  11 C11            7.0545    11.8229    -0.0018 C.3     
  12 C12            8.4899    12.3524    -0.0127 C.3     
  13 C13            8.4691    13.8823    -0.0043 C.3     
  14 C14            9.9045    14.4119    -0.0151 C.3     
  15 C15            0.0021    -0.0041     0.0020 C.3     
  16 C16           -1.4333    -0.5336     0.0129 C.3     
  17 S17            9.8799    16.2257    -0.0051 S.o2    
  18 O18            9.5806    16.7131     1.2956 O.2     
  19 F19           11.4145    16.6496    -0.2446 F       
  20 O20            9.1969    16.7214    -1.1484 O.2     
  21 H21           -0.5289     1.8773     0.9072 H       
  22 H22           -0.5459     1.8868    -0.8726 H       
  23 H23            0.8688     3.9463    -0.8751 H       
  24 H24            0.8858     3.9367     0.9048 H       
  25 H25            1.9439     1.6943     0.8826 H       
  26 H26            1.9269     1.7038    -0.8972 H       
  27 H27            2.2834     6.0057    -0.8775 H       
  28 H28            2.3004     5.9961     0.9023 H       
  29 H29            3.3585     3.7537     0.8802 H       
  30 H30            3.3415     3.7632    -0.8997 H       
  31 H31            4.7732     5.8131     0.8777 H       
  32 H32            4.7562     5.8227    -0.9021 H       
  33 H33            3.6980     8.0651    -0.8800 H       
  34 H34            3.7150     8.0555     0.8999 H       
  35 H35            6.1878     7.8725     0.8753 H       
  36 H36            6.1708     7.8821    -0.9046 H       
  37 H37            5.1127    10.1245    -0.8824 H       
  38 H38            5.1297    10.1150     0.8974 H       
  39 H39            7.6024     9.9319     0.8728 H       
  40 H40            7.5854     9.9415    -0.9070 H       
  41 H41            6.5273    12.1839    -0.8849 H       
  42 H42            6.5443    12.1744     0.8950 H       
  43 H43            9.0171    11.9914     0.8704 H       
  44 H44            9.0001    12.0009    -0.9095 H       
  45 H45            7.9420    14.2434    -0.8873 H       
  46 H46            7.9589    14.2338     0.8925 H       
  47 H47           10.4317    14.0508     0.8679 H       
  48 H48           10.4147    14.0603    -0.9119 H       
  49 H49            0.5123    -0.3556    -0.8948 H       
  50 H50            0.5293    -0.3651     0.8851 H       
  51 H51           -1.9435    -0.1821     0.9097 H       
  52 H52           -1.9605    -0.1726    -0.8702 H       
  53 H53           -1.4185    -1.6235     0.0069 H       
@<TRIPOS>BOND
   1    1   15 1
   2    1    3 1
   3    1   21 1
   4    1   22 1
   5    2    3 1
   6    2    5 1
   7    2   23 1
   8    2   24 1
   9    3   25 1
  10    3   26 1
  11    4    5 1
  12    4    6 1
  13    4   27 1
  14    4   28 1
  15    5   29 1
  16    5   30 1
  17    6    7 1
  18    6   31 1
  19    6   32 1
  20    7    8 1
  21    7   33 1
  22    7   34 1
  23    8    9 1
  24    8   35 1
  25    8   36 1
  26    9   10 1
  27    9   37 1
  28    9   38 1
  29   10   11 1
  30   10   39 1
  31   10   40 1
  32   11   12 1
  33   11   41 1
  34   11   42 1
  35   12   13 1
  36   12   43 1
  37   12   44 1
  38   13   14 1
  39   13   45 1
  40   13   46 1
  41   14   17 1
  42   14   47 1
  43   14   48 1
  44   15   16 1
  45   15   49 1
  46   15   50 1
  47   16   51 1
  48   16   52 1
  49   16   53 1
  50   17   18 2
  51   17   19 1
  52   17   20 2

#	End of record

