#	Name: ASD03370005
#	Creating user name:	WinNT
#	Creation time:	15. 06. 2019 20:40

#	Modifying user name:	WinNT
#	Modification time:	15. 06. 2019 20:40

#	Program:	/corina/corina34_cracker 3.40 0067  02.08.2006

@<TRIPOS>MOLECULE
ASD03370005
  47   50    0    0    0
SMALL
NO_CHARGES


@<TRIPOS>ATOM
   1 C1            -0.0576     1.7132    -0.7707 C.3     
   2 N2             0.4539     0.4492    -0.2223 N.am    
   3 C3            -0.0582    -0.7532    -0.8814 C.3     
   4 C4            -0.2710    -0.4494    -2.3916 C.3     
   5 S5            -1.0067     1.2352    -2.2670 S.3     
   6 C6             1.3663     2.1744    -1.0764 C.3     
   7 C7             1.7191     0.8509    -0.4521 C.2     
   8 C8             1.0588    -0.4224    -3.1476 C.3     
   9 C9            -1.2494    -1.4393    -3.0269 C.3     
  10 O10            2.7876     0.3219    -0.2297 O.2     
  11 N11            1.6768     2.2707    -2.5049 N.am    
  12 C12            2.7526     2.9715    -2.9149 C.2     
  13 C13            3.0648     3.0683    -4.3510 C.2     
  14 O14            3.4656     3.5239    -2.0990 O.2     
  15 C15            3.9098     2.1766    -5.1726 C.2     
  16 N16            3.8712     2.6852    -6.3779 N.2     
  17 O17            3.1868     3.6774    -6.4301 O.3     
  18 C18            2.6382     4.0052    -5.2581 C.2     
  19 C19            1.7361     5.1806    -4.9827 C.3     
  20 C20            4.6436     0.9670    -4.7273 C.ar    
  21 C21            4.7741    -0.1262    -5.5820 C.ar    
  22 C22            5.4583    -1.2489    -5.1625 C.ar    
  23 C23            6.0137    -1.2907    -3.8963 C.ar    
  24 C24            5.8873    -0.2087    -3.0438 C.ar    
  25 C25            5.2102     0.9215    -3.4548 C.ar    
  26 C26            0.9346    -1.8764    -0.7266 C.2     
  27 O27            1.9022    -1.7340    -0.0171 O.2     
  28 O28            0.7439    -3.0351    -1.3769 O.3     
  29 H29           -0.6025     2.3407    -0.0654 H       
  30 H30           -1.0069    -1.0423    -0.4292 H       
  31 H31            1.6906     3.0428    -0.5030 H       
  32 H32            1.4761    -1.4287    -3.1848 H       
  33 H33            0.8927    -0.0602    -4.1622 H       
  34 H34            1.7551     0.2409    -2.6345 H       
  35 H35           -2.2128    -1.3731    -2.5214 H       
  36 H36           -1.3757    -1.1986    -4.0825 H       
  37 H37           -0.8568    -2.4515    -2.9295 H       
  38 H38            1.1082     1.8301    -3.1556 H       
  39 H39            1.5870     5.7473    -5.9018 H       
  40 H40            0.7739     4.8223    -4.6167 H       
  41 H41            2.1948     5.8224    -4.2306 H       
  42 H42            4.3402    -0.0948    -6.5705 H       
  43 H43            5.5600    -2.0966    -5.8239 H       
  44 H44            6.5477    -2.1717    -3.5720 H       
  45 H45            6.3230    -0.2468    -2.0563 H       
  46 H46            5.1121     1.7657    -2.7884 H       
  47 H47            1.4076    -3.7261    -1.2464 H       
@<TRIPOS>BOND
   1    1    2 1
   2    1    6 1
   3    1    5 1
   4    1   29 1
   5    2    3 1
   6    2    7 am
   7    3    4 1
   8    3   26 1
   9    3   30 1
  10    4    5 1
  11    4    8 1
  12    4    9 1
  13    6    7 1
  14    6   11 1
  15    6   31 1
  16    7   10 2
  17    8   32 1
  18    8   33 1
  19    8   34 1
  20    9   35 1
  21    9   36 1
  22    9   37 1
  23   11   12 am
  24   11   38 1
  25   12   13 1
  26   12   14 2
  27   13   15 1
  28   13   18 2
  29   15   16 2
  30   15   20 1
  31   16   17 1
  32   17   18 1
  33   18   19 1
  34   19   39 1
  35   19   40 1
  36   19   41 1
  37   20   21 ar
  38   20   25 ar
  39   21   22 ar
  40   21   42 1
  41   22   23 ar
  42   22   43 1
  43   23   24 ar
  44   23   44 1
  45   24   25 ar
  46   24   45 1
  47   25   46 1
  48   26   27 2
  49   26   28 1
  50   28   47 1

#	End of record

