#	Name: ASD01230441
#	Creating user name:	WinNT
#	Creation time:	15. 06. 2019 19:14

#	Modifying user name:	WinNT
#	Modification time:	15. 06. 2019 19:14

#	Program:	/corina/corina34_cracker 3.40 0067  02.08.2006

@<TRIPOS>MOLECULE
ASD01230441
  46   49    0    0    0
SMALL
NO_CHARGES


@<TRIPOS>ATOM
   1 S1            -0.0204     1.6502     0.0111 S.o2    
   2 N2             0.0021    -0.0041     0.0020 N.am    
   3 C3             1.0256    -0.6894    -0.4563 C.2     
   4 N4             2.1713    -0.1507    -0.9688 N.pl3   
   5 C5             2.3936     1.2863    -1.1471 C.3     
   6 C6             1.7498     2.0759    -0.0035 C.3     
   7 C7             0.8928    -2.1077    -0.3981 C.2     
   8 C8             1.9093    -2.9032    -0.8069 C.2     
   9 C9             3.0927    -2.3153    -1.2868 C.2     
  10 C10            3.1981    -0.9765    -1.3566 C.2     
  11 C11           -0.3816    -2.7228     0.1202 C.3     
  12 C12           -0.6174    -2.2689     1.5622 C.3     
  13 C13           -1.9112    -2.8934     2.0883 C.3     
  14 C14           -3.0851    -2.4468     1.2147 C.3     
  15 C15           -2.8494    -2.9007    -0.2273 C.3     
  16 C16           -1.5555    -2.2762    -0.7535 C.3     
  17 C17           -4.3595    -3.0619     1.7329 C.ar    
  18 C18           -5.3981    -2.2512     2.1512 C.ar    
  19 C19           -6.5671    -2.8154     2.6266 C.ar    
  20 C20           -6.6976    -4.1904     2.6834 C.ar    
  21 C21           -5.6594    -5.0012     2.2643 C.ar    
  22 C22           -4.4921    -4.4369     1.7848 C.ar    
  23 O23           -0.6348     2.0061    -1.2198 O.2     
  24 O24           -0.6111     1.9928     1.2573 O.2     
  25 H25            3.4652     1.4851    -1.1626 H       
  26 H26            1.9560     1.6031    -2.0938 H       
  27 H27            1.8733     3.1452    -0.1748 H       
  28 H28            2.2071     1.7954     0.9453 H       
  29 H29            1.8121    -3.9780    -0.7645 H       
  30 H30            3.9172    -2.9389    -1.5995 H       
  31 H31            4.1135    -0.5393    -1.7270 H       
  32 H32           -0.2991    -3.8093     0.0902 H       
  33 H33            0.2190    -2.5871     2.1846 H       
  34 H34           -0.6999    -1.1825     1.5922 H       
  35 H35           -1.8287    -3.9799     2.0583 H       
  36 H36           -2.0792    -2.5701     3.1156 H       
  37 H37           -3.1677    -1.3604     1.2447 H       
  38 H38           -2.7668    -3.9872    -0.2573 H       
  39 H39           -3.6857    -2.5825    -0.8497 H       
  40 H40           -1.6381    -1.1897    -0.7234 H       
  41 H41           -1.3876    -2.5995    -1.7808 H       
  42 H42           -5.2961    -1.1769     2.1068 H       
  43 H43           -7.3782    -2.1820     2.9540 H       
  44 H44           -7.6107    -4.6312     3.0555 H       
  45 H45           -5.7613    -6.0754     2.3090 H       
  46 H46           -3.6823    -5.0704     1.4539 H       
@<TRIPOS>BOND
   1    1    2 am
   2    1    6 1
   3    1   23 2
   4    1   24 2
   5    2    3 2
   6    3    4 1
   7    3    7 1
   8    4    5 1
   9    4   10 1
  10    5    6 1
  11    5   25 1
  12    5   26 1
  13    6   27 1
  14    6   28 1
  15    7    8 2
  16    7   11 1
  17    8    9 1
  18    8   29 1
  19    9   10 2
  20    9   30 1
  21   10   31 1
  22   11   12 1
  23   11   16 1
  24   11   32 1
  25   12   13 1
  26   12   33 1
  27   12   34 1
  28   13   14 1
  29   13   35 1
  30   13   36 1
  31   14   15 1
  32   14   17 1
  33   14   37 1
  34   15   16 1
  35   15   38 1
  36   15   39 1
  37   16   40 1
  38   16   41 1
  39   17   18 ar
  40   17   22 ar
  41   18   19 ar
  42   18   42 1
  43   19   20 ar
  44   19   43 1
  45   20   21 ar
  46   20   44 1
  47   21   22 ar
  48   21   45 1
  49   22   46 1

#	End of record

