#	Name: ASD01001107
#	Creating user name:	WinNT
#	Creation time:	15. 06. 2019 18:55

#	Modifying user name:	WinNT
#	Modification time:	15. 06. 2019 18:55

#	Program:	/corina/corina34_cracker 3.40 0067  02.08.2006

@<TRIPOS>MOLECULE
ASD01001107
  72   76    0    0    0
SMALL
NO_CHARGES


@<TRIPOS>ATOM
   1 C1             0.8701     0.1130     2.1860 C.2     
   2 N2            -0.1337    -0.4421     2.9559 N.pl3   
   3 N3            -1.3045    -0.8811     2.3251 N.2     
   4 C4            -1.4592    -0.7764     1.0479 C.2     
   5 N5            -0.5015    -0.2352     0.2279 N.am    
   6 C6             0.6616     0.2230     0.7416 C.2     
   7 C7             1.9030     0.4606     3.0280 C.2     
   8 C8             1.5076     0.1066     4.3206 C.2     
   9 C9             0.2664    -0.4388     4.2423 C.2     
  10 O10            1.5168     0.7052     0.0211 O.2     
  11 C11           -0.7439    -0.1479    -1.2143 C.3     
  12 C12           -1.2837     1.2182    -1.5512 C.ar    
  13 C13           -0.4161     2.2797    -1.7287 C.ar    
  14 C14           -0.9113     3.5328    -2.0377 C.ar    
  15 C15           -2.2740     3.7243    -2.1695 C.ar    
  16 C16           -3.1414     2.6626    -1.9928 C.ar    
  17 C17           -2.6460     1.4086    -1.6881 C.ar    
  18 C18           -2.7435    -1.2691     0.4324 C.3     
  19 N19           -2.8677    -2.7123     0.6511 N.am    
  20 C20           -3.9284    -0.5510     1.0815 C.3     
  21 C21           -2.6840    -3.2682     1.9941 C.3     
  22 C22           -3.1511    -3.5287    -0.3832 C.2     
  23 C23           -3.0918    -4.9952    -0.2051 C.ar    
  24 O24           -3.4553    -3.0593    -1.4623 O.2     
  25 H25           -0.3084    -0.8100     5.0780 H       
  26 C26           -3.1383    -5.8386    -1.3163 C.ar    
  27 C27           -3.0827    -7.2061    -1.1432 C.ar    
  28 C28           -2.9810    -7.7420     0.1283 C.ar    
  29 C29           -2.9349    -6.9116     1.2340 C.ar    
  30 C30           -2.9834    -5.5421     1.0744 C.ar    
  31 C31           -2.9206    -9.2368     0.3098 C.3     
  32 C32           -5.2071    -0.8728     0.3054 C.3     
  33 C33           -4.0230    -3.7927     2.5165 C.3     
  34 C34           -3.7966    -4.5665     3.8183 C.3     
  35 C35           -5.1454    -5.0363     4.3678 C.3     
  36 N36           -6.0077    -3.8732     4.6125 N.3     
  37 C37           -6.2777    -3.1413     3.3683 C.3     
  38 C38           -4.9627    -2.6149     2.7889 C.3     
  39 H39            2.8390     0.9182     2.7438 H       
  40 H40            2.0867     0.2422     5.2221 H       
  41 H41            0.1910    -0.3115    -1.7504 H       
  42 H42           -1.4686    -0.9074    -1.5076 H       
  43 H43            0.6485     2.1301    -1.6257 H       
  44 H44           -0.2336     4.3623    -2.1757 H       
  45 H45           -2.6609     4.7035    -2.4101 H       
  46 H46           -4.2061     2.8123    -2.0955 H       
  47 H47           -3.3237     0.5791    -1.5501 H       
  48 H48           -2.7359    -1.0631    -0.6379 H       
  49 H49           -4.0355    -0.8862     2.1132 H       
  50 H50           -3.7545     0.5249     1.0653 H       
  51 H51           -1.9643    -4.0858     1.9535 H       
  52 H52           -2.3130    -2.4904     2.6616 H       
  53 H53           -3.2181    -5.4216    -2.3093 H       
  54 H54           -3.1189    -7.8599    -2.0021 H       
  55 H55           -2.8558    -7.3362     2.2239 H       
  56 H56           -2.9470    -4.8949     1.9383 H       
  57 H57           -1.8812    -9.5641     0.2855 H       
  58 H58           -3.3635    -9.5045     1.2691 H       
  59 H59           -3.4735    -9.7230    -0.4940 H       
  60 H60           -6.0725    -0.7131     0.9487 H       
  61 H61           -5.2769    -0.2215    -0.5658 H       
  62 H62           -5.1829    -1.9130    -0.0195 H       
  63 H63           -4.4705    -4.4527     1.7735 H       
  64 H64           -3.1625    -5.4311     3.6221 H       
  65 H65           -3.3125    -3.9175     4.5479 H       
  66 H66           -5.6227    -5.6963     3.6435 H       
  67 H67           -4.9890    -5.5754     5.3022 H       
  68 H68           -6.8671    -4.1487     5.0637 H       
  69 H69           -6.7497    -3.8102     2.6487 H       
  70 H70           -6.9437    -2.3040     3.5768 H       
  71 H71           -4.4969    -1.9352     3.5024 H       
  72 H72           -5.1618    -2.0852     1.8574 H       
@<TRIPOS>BOND
   1    1    2 1
   2    1    7 2
   3    1    6 1
   4    2    3 1
   5    2    9 1
   6    3    4 2
   7    4    5 1
   8    4   18 1
   9    5    6 am
  10    5   11 1
  11    6   10 2
  12    7    8 1
  13    7   39 1
  14    8    9 2
  15    8   40 1
  16    9   25 1
  17   11   12 1
  18   11   41 1
  19   11   42 1
  20   12   13 ar
  21   12   17 ar
  22   13   14 ar
  23   13   43 1
  24   14   15 ar
  25   14   44 1
  26   15   16 ar
  27   15   45 1
  28   16   17 ar
  29   16   46 1
  30   17   47 1
  31   18   19 1
  32   18   20 1
  33   18   48 1
  34   19   21 1
  35   19   22 am
  36   20   32 1
  37   20   49 1
  38   20   50 1
  39   21   33 1
  40   21   51 1
  41   21   52 1
  42   22   23 1
  43   22   24 2
  44   23   26 ar
  45   23   30 ar
  46   26   27 ar
  47   26   53 1
  48   27   28 ar
  49   27   54 1
  50   28   29 ar
  51   28   31 1
  52   29   30 ar
  53   29   55 1
  54   30   56 1
  55   31   57 1
  56   31   58 1
  57   31   59 1
  58   32   60 1
  59   32   61 1
  60   32   62 1
  61   33   34 1
  62   33   38 1
  63   33   63 1
  64   34   35 1
  65   34   64 1
  66   34   65 1
  67   35   36 1
  68   35   66 1
  69   35   67 1
  70   36   37 1
  71   36   68 1
  72   37   38 1
  73   37   69 1
  74   37   70 1
  75   38   71 1
  76   38   72 1

#	End of record

