#	Name: ASD01150036
#	Creating user name:	WinNT
#	Creation time:	15. 06. 2019 19:03

#	Modifying user name:	WinNT
#	Modification time:	15. 06. 2019 19:03

#	Program:	/corina/corina34_cracker 3.40 0067  02.08.2006

@<TRIPOS>MOLECULE
ASD01150036
  41   43    0    0    0
SMALL
NO_CHARGES


@<TRIPOS>ATOM
   1 C1            -0.0158     1.3138     0.0093 C.ar    
   2 N2             0.0021    -0.0041     0.0020 N.ar    
   3 C3            -1.1219    -0.7042     0.0090 C.ar    
   4 C4            -2.3393    -0.0282     0.0242 C.ar    
   5 C5            -2.3161     1.3789     0.0316 C.ar    
   6 N6            -1.1413     1.9993     0.0291 N.ar    
   7 C7            -3.6236    -0.7699     0.0320 C.ar    
   8 C8            -3.8505    -1.7855    -0.8952 C.ar    
   9 C9            -5.0472    -2.4726    -0.8829 C.ar    
  10 C10           -6.0208    -2.1548     0.0469 C.ar    
  11 C11           -5.8011    -1.1479     0.9695 C.ar    
  12 C12           -4.6059    -0.4579     0.9703 C.ar    
  13 C13           -7.3260    -2.9082     0.0545 C.3     
  14 F14           -7.2169    -4.0215     0.8947 F       
  15 F15           -8.3452    -2.0706     0.5202 F       
  16 F16           -7.6274    -3.3319    -1.2442 F       
  17 C17            1.2930     2.0608     0.0008 C.3     
  18 N18           -3.4950     2.1028     0.0467 N.pl3   
  19 C19           -3.4553     3.5672     0.0542 C.3     
  20 C20           -4.8619     4.1078     0.0706 C.ar    
  21 C21           -5.4956     4.3493     1.2752 C.ar    
  22 C22           -6.7859     4.8451     1.2902 C.ar    
  23 C23           -7.4423     5.0999     0.1006 C.ar    
  24 C24           -6.8083     4.8592    -1.1040 C.ar    
  25 C25           -5.5165     4.3675    -1.1190 C.ar    
  26 H26           -1.0948    -1.7838     0.0026 H       
  27 H27           -3.0913    -2.0340    -1.6220 H       
  28 H28           -5.2241    -3.2598    -1.6009 H       
  29 H29           -6.5647    -0.9039     1.6932 H       
  30 H30           -4.4354     0.3282     1.6911 H       
  31 H31            1.5987     2.2464    -1.0289 H       
  32 H32            1.1723     3.0111     0.5209 H       
  33 H33            2.0546     1.4652     0.5042 H       
  34 H34           -4.3479     1.6407     0.0524 H       
  35 H35           -2.9233     3.9117     0.9410 H       
  36 H36           -2.9404     3.9213    -0.8388 H       
  37 H37           -4.9827     4.1503     2.2046 H       
  38 H38           -7.2812     5.0331     2.2313 H       
  39 H39           -8.4506     5.4866     0.1124 H       
  40 H40           -7.3213     5.0579    -2.0333 H       
  41 H41           -5.0211     4.1795    -2.0601 H       
@<TRIPOS>BOND
   1    1    2 ar
   2    1   17 1
   3    1    6 ar
   4    2    3 ar
   5    3    4 ar
   6    3   26 1
   7    4    5 ar
   8    4    7 1
   9    5    6 ar
  10    5   18 1
  11    7    8 ar
  12    7   12 ar
  13    8    9 ar
  14    8   27 1
  15    9   10 ar
  16    9   28 1
  17   10   11 ar
  18   10   13 1
  19   11   12 ar
  20   11   29 1
  21   12   30 1
  22   13   14 1
  23   13   15 1
  24   13   16 1
  25   17   31 1
  26   17   32 1
  27   17   33 1
  28   18   19 1
  29   18   34 1
  30   19   20 1
  31   19   35 1
  32   19   36 1
  33   20   21 ar
  34   20   25 ar
  35   21   22 ar
  36   21   37 1
  37   22   23 ar
  38   22   38 1
  39   23   24 ar
  40   23   39 1
  41   24   25 ar
  42   24   40 1
  43   25   41 1

#	End of record

