#	Name: ASD03330628
#	Creating user name:	WinNT
#	Creation time:	15. 06. 2019 20:37

#	Modifying user name:	WinNT
#	Modification time:	15. 06. 2019 20:37

#	Program:	/corina/corina34_cracker 3.40 0067  02.08.2006

@<TRIPOS>MOLECULE
ASD03330628
  66   69    0    0    0
SMALL
NO_CHARGES


@<TRIPOS>ATOM
   1 C1            -0.0586     1.9466     1.7390 C.2     
   2 N2            -0.1383     0.6496     2.1373 N.pl3   
   3 C3             1.2237     2.1630     1.3325 C.2     
   4 N4             1.9012     1.0030     1.4693 N.2     
   5 C5             1.0905     0.0863     1.9466 C.2     
   6 C6             1.4485    -1.3177     2.2300 C.ar    
   7 C7             1.7732     3.4359     0.8328 C.2     
   8 O8             1.0595     4.4175     0.7550 O.2     
   9 C9             3.6130     4.7774    -0.0349 C.3     
  10 N10            3.0667     3.5121     0.4619 N.am    
  11 C11            3.3283     4.9026    -1.5330 C.3     
  12 C12            1.8237     4.7740    -1.7787 C.3     
  13 C13            3.8119     6.2657    -2.0318 C.3     
  14 C14            4.0648     3.7932    -2.2865 C.3     
  15 C15            5.1016     4.8077     0.1978 C.2     
  16 N16            5.7766     5.9695     0.0925 N.am    
  17 O17            5.6922     3.7867     0.4800 O.2     
  18 C18            7.2335     5.9867     0.2453 C.3     
  19 C19           -1.3332     0.0000     2.6831 C.3     
  20 C20           -2.5370     0.3374     1.7978 C.3     
  21 C21           -3.1717     1.6429     2.2661 C.3     
  22 N22           -2.1588     2.5658     2.7820 N.3     
  23 C23           -1.1932     2.9380     1.7372 C.3     
  24 C24           -2.7837     3.7581     3.3701 C.3     
  25 C25            2.1499    -2.0861     1.2684 C.ar    
  26 C26            2.4816    -3.4306     1.5645 C.ar    
  27 C27            2.1097    -3.9789     2.8040 C.ar    
  28 C28            1.4350    -3.2198     3.7124 C.ar    
  29 C29            1.1070    -1.8969     3.4419 C.ar    
  30 C30            2.5205    -1.5407     0.0314 C.ar    
  31 C31            3.1941    -2.3087    -0.8699 C.ar    
  32 C32            3.5209    -3.6317    -0.5808 C.ar    
  33 C33            3.1777    -4.1935     0.6107 C.ar    
  34 H34            3.1455     5.6077     0.4944 H       
  35 H35            3.6360     2.7291     0.5239 H       
  36 H36            1.2990     5.5644    -1.2419 H       
  37 H37            1.6209     4.8632    -2.8459 H       
  38 H38            1.4792     3.8029    -1.4233 H       
  39 H39            4.8509     6.4128    -1.7370 H       
  40 H40            3.7337     6.3037    -3.1183 H       
  41 H41            3.1957     7.0518    -1.5955 H       
  42 H42            3.7202     2.8220    -1.9311 H       
  43 H43            3.8620     3.8823    -3.3537 H       
  44 H44            5.1367     3.8847    -2.1114 H       
  45 H45            5.2978     6.7943    -0.0846 H       
  46 H46            7.4993     5.6166     1.2355 H       
  47 H47            7.6861     5.3493    -0.5143 H       
  48 H48            7.5991     7.0069     0.1286 H       
  49 H49           -1.1850    -1.0797     2.7005 H       
  50 H50           -1.5134     0.3604     3.6958 H       
  51 H51           -2.2080     0.4446     0.7641 H       
  52 H52           -3.2708    -0.4660     1.8622 H       
  53 H53           -3.6878     2.1106     1.4277 H       
  54 H54           -3.8935     1.4272     3.0539 H       
  55 H55           -0.8052     3.9365     1.9386 H       
  56 H56           -1.6858     2.9264     0.7649 H       
  57 H57           -3.4350     3.4593     4.1915 H       
  58 H58           -2.0090     4.4267     3.7455 H       
  59 H59           -3.3709     4.2731     2.6098 H       
  60 H60            2.3588    -5.0037     3.0368 H       
  61 H61            1.1544    -3.6525     4.6613 H       
  62 H62            0.5721    -1.3172     4.1796 H       
  63 H63            2.2729    -0.5167    -0.2061 H       
  64 H64            3.4784    -1.8861    -1.8222 H       
  65 H65            4.0551    -4.2200    -1.3122 H       
  66 H66            3.4374    -5.2204     0.8215 H       
@<TRIPOS>BOND
   1    1    2 1
   2    1    3 2
   3    1   23 1
   4    2   19 1
   5    2    5 1
   6    3    4 1
   7    3    7 1
   8    4    5 2
   9    5    6 1
  10    6   25 ar
  11    6   29 ar
  12    7    8 2
  13    7   10 am
  14    9   10 1
  15    9   11 1
  16    9   15 1
  17    9   34 1
  18   10   35 1
  19   11   12 1
  20   11   13 1
  21   11   14 1
  22   12   36 1
  23   12   37 1
  24   12   38 1
  25   13   39 1
  26   13   40 1
  27   13   41 1
  28   14   42 1
  29   14   43 1
  30   14   44 1
  31   15   16 am
  32   15   17 2
  33   16   18 1
  34   16   45 1
  35   18   46 1
  36   18   47 1
  37   18   48 1
  38   19   20 1
  39   19   49 1
  40   19   50 1
  41   20   21 1
  42   20   51 1
  43   20   52 1
  44   21   22 1
  45   21   53 1
  46   21   54 1
  47   22   23 1
  48   22   24 1
  49   23   55 1
  50   23   56 1
  51   24   57 1
  52   24   58 1
  53   24   59 1
  54   25   26 ar
  55   25   30 ar
  56   26   27 ar
  57   26   33 ar
  58   27   28 ar
  59   27   60 1
  60   28   29 ar
  61   28   61 1
  62   29   62 1
  63   30   31 ar
  64   30   63 1
  65   31   32 ar
  66   31   64 1
  67   32   33 ar
  68   32   65 1
  69   33   66 1

#	End of record

