#	Name: ASD01410425
#	Creating user name:	WinNT
#	Creation time:	15. 06. 2019 19:17

#	Modifying user name:	WinNT
#	Modification time:	15. 06. 2019 19:17

#	Program:	/corina/corina34_cracker 3.40 0067  02.08.2006

@<TRIPOS>MOLECULE
ASD01410425
  60   62    0    0    0
SMALL
NO_CHARGES


@<TRIPOS>ATOM
   1 C1             0.7401     2.4236     2.7310 C.ar    
   2 C2             1.2136     1.5726     3.7204 C.ar    
   3 C3             2.4037     0.9017     3.5216 C.ar    
   4 N4             3.0916     1.0604     2.4068 N.ar    
   5 C5             2.6733     1.8620     1.4414 C.ar    
   6 C6             1.4844     2.5687     1.5735 C.ar    
   7 O7             3.4123     1.9955     0.3115 O.3     
   8 C8             4.6179     1.3691     0.2595 C.ar    
   9 C9             4.6778    -0.0194     0.2639 C.ar    
  10 C10            5.8963    -0.6653     0.2110 C.ar    
  11 C11            7.0725     0.0692     0.1530 C.ar    
  12 C12            7.0189     1.4714     0.1483 C.ar    
  13 C13            5.7804     2.1157     0.1968 C.ar    
  14 N14            8.3030    -0.5838     0.1000 N.am    
  15 C15            8.7893    -1.1282    -1.1702 C.3     
  16 C16            7.7524    -2.0985    -1.7395 C.3     
  17 C17            9.0452    -0.7144     1.2174 C.2     
  18 O18            8.6850    -0.1892     2.2495 O.2     
  19 C19           10.3228    -1.5130     1.1843 C.3     
  20 C20           11.0669    -1.3400     2.5099 C.3     
  21 C21           12.3640    -2.1508     2.4763 C.3     
  22 C22           12.0354    -3.6301     2.2652 C.3     
  23 C23           11.2913    -3.8031     0.9395 C.3     
  24 C24            9.9943    -2.9923     0.9731 C.3     
  25 C25           13.3325    -4.4408     2.2315 C.3     
  26 C26            9.0164     0.0150    -2.1614 C.3     
  27 C27            1.0117     3.4809     0.4710 C.3     
  28 F28           -0.2006     4.0721     0.8425 F       
  29 F29            1.9677     4.4778     0.2485 F       
  30 F30            0.8292     2.7398    -0.7014 F       
  31 C31            8.2625     2.2602     0.0869 C.2     
  32 O32            9.3348     1.6972    -0.0121 O.2     
  33 O33            8.2104     3.6057     0.1407 O.3     
  34 H34           -0.1902     2.9568     2.8598 H       
  35 H35            0.6571     1.4372     4.6360 H       
  36 H36            2.7766     0.2388     4.2884 H       
  37 H37            3.7658    -0.5961     0.3092 H       
  38 H38            5.9347    -1.7446     0.2151 H       
  39 H39            5.7311     3.1946     0.1935 H       
  40 H40            9.7281    -1.6564    -1.0034 H       
  41 H41            6.8432    -1.5523    -1.9910 H       
  42 H42            8.1517    -2.5718    -2.6365 H       
  43 H43            7.5234    -2.8627    -0.9967 H       
  44 H44           10.9509    -1.1600     0.3664 H       
  45 H45           11.3010    -0.2861     2.6604 H       
  46 H46           10.4389    -1.6930     3.3279 H       
  47 H47           12.9920    -1.7977     1.6584 H       
  48 H48           12.8941    -2.0275     3.4207 H       
  49 H49           11.4074    -3.9831     3.0831 H       
  50 H50           11.9194    -3.4500     0.1216 H       
  51 H51           11.0573    -4.8570     0.7891 H       
  52 H52            9.3662    -3.3453     1.7911 H       
  53 H53            9.4642    -3.1155     0.0287 H       
  54 H54           13.8626    -4.3176     3.1760 H       
  55 H55           13.0984    -5.4947     2.0811 H       
  56 H56           13.9605    -4.0878     1.4136 H       
  57 H57            9.8341     0.6439    -1.8095 H       
  58 H58            9.2690    -0.3963    -3.1387 H       
  59 H59            8.1078     0.6117    -2.2421 H       
  60 H60            9.0521     4.0797     0.0970 H       
@<TRIPOS>BOND
   1    1    2 ar
   2    1    6 ar
   3    1   34 1
   4    2    3 ar
   5    2   35 1
   6    3    4 ar
   7    3   36 1
   8    4    5 ar
   9    5    6 ar
  10    5    7 1
  11    6   27 1
  12    7    8 1
  13    8    9 ar
  14    8   13 ar
  15    9   10 ar
  16    9   37 1
  17   10   11 ar
  18   10   38 1
  19   11   12 ar
  20   11   14 1
  21   12   13 ar
  22   12   31 1
  23   13   39 1
  24   14   15 1
  25   14   17 am
  26   15   16 1
  27   15   26 1
  28   15   40 1
  29   16   41 1
  30   16   42 1
  31   16   43 1
  32   17   18 2
  33   17   19 1
  34   19   20 1
  35   19   24 1
  36   19   44 1
  37   20   21 1
  38   20   45 1
  39   20   46 1
  40   21   22 1
  41   21   47 1
  42   21   48 1
  43   22   23 1
  44   22   25 1
  45   22   49 1
  46   23   24 1
  47   23   50 1
  48   23   51 1
  49   24   52 1
  50   24   53 1
  51   25   54 1
  52   25   55 1
  53   25   56 1
  54   26   57 1
  55   26   58 1
  56   26   59 1
  57   27   28 1
  58   27   29 1
  59   27   30 1
  60   31   32 2
  61   31   33 1
  62   33   60 1

#	End of record

