#	Name: ASD01008012
#	Creating user name:	WinNT
#	Creation time:	15. 06. 2019 18:56

#	Modifying user name:	WinNT
#	Modification time:	15. 06. 2019 18:56

#	Program:	/corina/corina34_cracker 3.40 0067  02.08.2006

@<TRIPOS>MOLECULE
ASD01008012
  49   50    0    0    0
SMALL
NO_CHARGES


@<TRIPOS>ATOM
   1 C1            -1.0487     1.7451     0.4005 C.2     
   2 C2            -0.8114     0.2626     0.2701 C.3     
   3 C3            -0.6934    -0.3595     1.6630 C.3     
   4 O4            -0.1313     2.5185     0.2588 O.2     
   5 O5            -2.2803     2.2066     0.6686 O.3     
   6 S6            -0.4077    -2.1439     1.5061 S.3     
   7 C7            -0.2973    -2.6928     3.2315 C.3     
   8 C8            -1.6059    -2.3681     3.9547 C.3     
   9 C9            -2.7677    -3.0660     3.2448 C.3     
  10 C10           -4.0897    -2.6276     3.8782 C.3     
  11 C11           -0.0571    -4.1800     3.2712 C.ar    
  12 C12           -0.5512    -4.9871     2.2635 C.ar    
  13 C13           -0.3308    -6.3513     2.2999 C.ar    
  14 C14            0.3839    -6.9083     3.3437 C.ar    
  15 C15            0.8788    -6.1012     4.3509 C.ar    
  16 C16            0.6622    -4.7364     4.3123 C.ar    
  17 C17            0.8432    -1.9814     3.9129 C.ar    
  18 C18            2.1485    -2.3321     3.6230 C.ar    
  19 C19            3.1946    -1.6796     4.2480 C.ar    
  20 C20            2.9354    -0.6761     5.1627 C.ar    
  21 C21            1.6301    -0.3247     5.4520 C.ar    
  22 C22            0.5841    -0.9743     4.8237 C.ar    
  23 C23           -1.5240    -2.8583     5.4018 C.3     
  24 N24            0.4317     0.0295    -0.4771 N.3     
  25 H25           -1.6462    -0.1936    -0.2620 H       
  26 H26            0.1414     0.0967     2.1951 H       
  27 H27           -1.6157    -0.1865     2.2175 H       
  28 H28           -2.3833     3.1652     0.7430 H       
  29 H29           -1.7687    -1.2904     3.9449 H       
  30 H30           -2.7634    -2.7955     2.1889 H       
  31 H31           -2.6579    -4.1459     3.3437 H       
  32 H32           -4.9174    -3.1248     3.3724 H       
  33 H33           -4.0939    -2.8981     4.9341 H       
  34 H34           -4.1994    -1.5477     3.7793 H       
  35 H35           -1.1096    -4.5518     1.4479 H       
  36 H36           -0.7175    -6.9819     1.5129 H       
  37 H37            0.5554    -7.9742     3.3725 H       
  38 H38            1.4369    -6.5365     5.1667 H       
  39 H39            1.0520    -4.1054     5.0973 H       
  40 H40            2.3510    -3.1161     2.9083 H       
  41 H41            4.2144    -1.9541     4.0220 H       
  42 H42            3.7527    -0.1667     5.6516 H       
  43 H43            1.4276     0.4591     6.1669 H       
  44 H44           -0.4356    -0.6973     5.0469 H       
  45 H45           -1.4272    -3.9439     5.4127 H       
  46 H46           -0.6571    -2.4113     5.8883 H       
  47 H47           -2.4295    -2.5689     5.9352 H       
  48 H48            0.3554     0.3743    -1.4223 H       
  49 H49            1.2210     0.4431    -0.0039 H       
@<TRIPOS>BOND
   1    1    2 1
   2    1    4 2
   3    1    5 1
   4    2    3 1
   5    2   24 1
   6    2   25 1
   7    3    6 1
   8    3   26 1
   9    3   27 1
  10    5   28 1
  11    6    7 1
  12    7    8 1
  13    7   11 1
  14    7   17 1
  15    8    9 1
  16    8   23 1
  17    8   29 1
  18    9   10 1
  19    9   30 1
  20    9   31 1
  21   10   32 1
  22   10   33 1
  23   10   34 1
  24   11   12 ar
  25   11   16 ar
  26   12   13 ar
  27   12   35 1
  28   13   14 ar
  29   13   36 1
  30   14   15 ar
  31   14   37 1
  32   15   16 ar
  33   15   38 1
  34   16   39 1
  35   17   18 ar
  36   17   22 ar
  37   18   19 ar
  38   18   40 1
  39   19   20 ar
  40   19   41 1
  41   20   21 ar
  42   20   42 1
  43   21   22 ar
  44   21   43 1
  45   22   44 1
  46   23   45 1
  47   23   46 1
  48   23   47 1
  49   24   48 1
  50   24   49 1

#	End of record

