#	Name: ASD01882666
#	Creating user name:	WinNT
#	Creation time:	15. 06. 2019 19:45

#	Modifying user name:	WinNT
#	Modification time:	15. 06. 2019 19:45

#	Program:	/corina/corina34_cracker 3.40 0067  02.08.2006

@<TRIPOS>MOLECULE
ASD01882666
  43   47    0    0    0
SMALL
NO_CHARGES


@<TRIPOS>ATOM
   1 C1            -0.0224     1.5976     0.1496 C.3     
   2 C2            -0.0708     0.0575     0.0529 C.3     
   3 N3             0.1457    -0.4112     1.4415 N.pl3   
   4 C4             1.1797     0.5028     1.9799 C.3     
   5 C5             0.8021     1.8912     1.4202 C.3     
   6 C6             1.3406     2.2845     0.0431 C.3     
   7 C7             2.4844     1.4756    -0.5122 C.ar    
   8 C8             2.3719     0.8826    -1.7559 C.ar    
   9 C9             3.4211     0.1405    -2.2652 C.ar    
  10 C10            4.5830    -0.0081    -1.5312 C.ar    
  11 C11            4.6959     0.5857    -0.2880 C.ar    
  12 C12            3.6483     1.3313     0.2195 C.ar    
  13 C13           -0.9797    -3.8021     2.2996 C.2     
  14 C14           -0.3381    -2.7492     1.6241 C.2     
  15 C15           -0.4809    -1.4709     2.0930 C.2     
  16 C16           -1.2670    -1.2339     3.2413 C.2     
  17 C17           -1.8734    -2.2581     3.8729 C.2     
  18 N18           -1.7373    -3.5361     3.4142 N.pl3   
  19 N19           -1.7689    -5.6517     3.0098 N.2     
  20 N20           -1.0395    -5.1099     2.0988 N.2     
  21 C21           -2.2183    -4.7416     3.8333 C.2     
  22 C22           -3.1077    -4.9803     5.0262 C.3     
  23 C23           -4.5732    -4.8860     4.5967 C.3     
  24 F24           -4.8355    -5.8514     3.6188 F       
  25 F25           -5.3988    -5.1076     5.7041 F       
  26 F26           -4.8251    -3.6128     4.0745 F       
  27 Cl27           0.6239    -3.0661     0.2142 Cl      
  28 H28           -0.9243     2.1491    -0.1160 H       
  29 H29           -1.0445    -0.2700    -0.3114 H       
  30 H30            0.7225    -0.3074    -0.5994 H       
  31 H31            1.1495     0.5112     3.0695 H       
  32 H32            2.1683     0.2074     1.6285 H       
  33 H33            0.5045     2.6597     2.1335 H       
  34 H34            1.3504     3.3450    -0.2084 H       
  35 H35            1.4641     0.9987    -2.3293 H       
  36 H36            3.3329    -0.3234    -3.2365 H       
  37 H37            5.4024    -0.5884    -1.9289 H       
  38 H38            5.6035     0.4692     0.2856 H       
  39 H39            3.7379     1.7982     1.1892 H       
  40 H40           -1.3826    -0.2274     3.6154 H       
  41 H41           -2.4726    -2.0658     4.7506 H       
  42 H42           -2.9114    -5.9722     5.4331 H       
  43 H43           -2.9033    -4.2281     5.7881 H       
@<TRIPOS>BOND
   1    1    2 1
   2    1    6 1
   3    1    5 1
   4    1   28 1
   5    2    3 1
   6    2   29 1
   7    2   30 1
   8    3    4 1
   9    3   15 1
  10    4    5 1
  11    4   31 1
  12    4   32 1
  13    5    6 1
  14    5   33 1
  15    6    7 1
  16    6   34 1
  17    7    8 ar
  18    7   12 ar
  19    8    9 ar
  20    8   35 1
  21    9   10 ar
  22    9   36 1
  23   10   11 ar
  24   10   37 1
  25   11   12 ar
  26   11   38 1
  27   12   39 1
  28   13   14 1
  29   13   18 1
  30   13   20 2
  31   14   15 2
  32   14   27 1
  33   15   16 1
  34   16   17 2
  35   16   40 1
  36   17   18 1
  37   17   41 1
  38   18   21 1
  39   19   20 1
  40   19   21 2
  41   21   22 1
  42   22   23 1
  43   22   42 1
  44   22   43 1
  45   23   24 1
  46   23   25 1
  47   23   26 1

#	End of record

