#	Name: ASD01915455
#	Creating user name:	WinNT
#	Creation time:	15. 06. 2019 20:05

#	Modifying user name:	WinNT
#	Modification time:	15. 06. 2019 20:05

#	Program:	/corina/corina34_cracker 3.40 0067  02.08.2006

@<TRIPOS>MOLECULE
ASD01915455
  37   39    0    0    0
SMALL
NO_CHARGES


@<TRIPOS>ATOM
   1 C1            -0.4099     1.7397     0.1049 C.ar    
   2 C2            -0.5424     0.3894     0.3737 C.ar    
   3 N3             0.5008    -0.3404     0.7074 N.ar    
   4 C4             1.7186     0.1813     0.8004 C.ar    
   5 C5             1.9318     1.5322     0.5451 C.ar    
   6 C6             0.8480     2.3308     0.1896 C.ar    
   7 C7            -1.9014    -0.2556     0.2835 C.3     
   8 O8             1.0135     3.6532    -0.0680 O.3     
   9 C9             2.2651     4.1720     0.0379 C.ar    
  10 C10            3.1956     3.9759    -0.9724 C.ar    
  11 N11            4.4113     4.4763    -0.8751 N.ar    
  12 C12            4.7922     5.1775     0.1743 C.ar    
  13 C13            3.9201     5.4165     1.2235 C.ar    
  14 C14            2.6294     4.9119     1.1582 C.ar    
  15 C15            2.8603    -0.6830     1.1798 C.2     
  16 N16            2.6606    -1.9924     1.4288 N.am    
  17 O17            3.9769    -0.2115     1.2664 O.2     
  18 C18            3.7470    -2.8268     1.6823 C.ar    
  19 C19            3.5460    -4.1945     1.8229 C.ar    
  20 C20            4.6335    -5.0139     2.0747 C.ar    
  21 C21            5.8893    -4.4348     2.1776 C.ar    
  22 C22            6.0177    -3.0644     2.0267 C.ar    
  23 N23            4.9621    -2.3095     1.7817 N.ar    
  24 F24            4.3198     6.1362     2.2946 F       
  25 F25            7.2381    -2.4935     2.1257 F       
  26 H26           -1.2720     2.3282    -0.1720 H       
  27 H27            2.9227     1.9550     0.6218 H       
  28 H28           -2.0619    -0.6248    -0.7294 H       
  29 H29           -1.9563    -1.0870     0.9862 H       
  30 H30           -2.6690     0.4785     0.5285 H       
  31 H31            2.9209     3.4067    -1.8482 H       
  32 H32            5.7973     5.5704     0.2166 H       
  33 H33            1.9274     5.0825     1.9610 H       
  34 H34            1.7605    -2.3538     1.4315 H       
  35 H35            2.5541    -4.6131     1.7372 H       
  36 H36            4.5064    -6.0804     2.1888 H       
  37 H37            6.7578    -5.0461     2.3738 H       
@<TRIPOS>BOND
   1    1    2 ar
   2    1    6 ar
   3    1   26 1
   4    2    3 ar
   5    2    7 1
   6    3    4 ar
   7    4    5 ar
   8    4   15 1
   9    5    6 ar
  10    5   27 1
  11    6    8 1
  12    7   28 1
  13    7   29 1
  14    7   30 1
  15    8    9 1
  16    9   10 ar
  17    9   14 ar
  18   10   11 ar
  19   10   31 1
  20   11   12 ar
  21   12   13 ar
  22   12   32 1
  23   13   14 ar
  24   13   24 1
  25   14   33 1
  26   15   16 am
  27   15   17 2
  28   16   18 1
  29   16   34 1
  30   18   19 ar
  31   18   23 ar
  32   19   20 ar
  33   19   35 1
  34   20   21 ar
  35   20   36 1
  36   21   22 ar
  37   21   37 1
  38   22   23 ar
  39   22   25 1

#	End of record

