#	Name: ASD01903283
#	Creating user name:	WinNT
#	Creation time:	15. 06. 2019 19:54

#	Modifying user name:	WinNT
#	Modification time:	15. 06. 2019 19:54

#	Program:	/corina/corina34_cracker 3.40 0067  02.08.2006

@<TRIPOS>MOLECULE
ASD01903283
  45   48    0    0    0
SMALL
NO_CHARGES


@<TRIPOS>ATOM
   1 C1            -0.0311     1.4039    -0.0601 C.ar    
   2 C2            -0.1788     0.2461     0.6865 C.ar    
   3 C3             0.8698    -0.1873     1.4832 C.ar    
   4 C4             2.0369     0.5596     1.5037 C.ar    
   5 C5             2.1154     1.7138     0.7272 C.ar    
   6 N6             1.0879     2.0940    -0.0221 N.ar    
   7 C7             3.3557     2.5236     0.7383 C.2     
   8 O8             4.2994     2.1803     1.4229 O.2     
   9 N9             3.4376     3.6411    -0.0106 N.am    
  10 C10            4.5705     4.4586     0.0737 C.ar    
  11 C11            5.8239     3.8910     0.2622 C.ar    
  12 C12            6.9419     4.6983     0.3455 C.ar    
  13 C13            6.8117     6.0776     0.2407 C.ar    
  14 C14            5.5584     6.6443     0.0522 C.ar    
  15 C15            4.4420     5.8373    -0.0367 C.ar    
  16 N16            7.9464     6.8983     0.3315 N.am    
  17 C17            8.4263     7.4092     1.4797 C.2     
  18 C18            9.6252     8.2167     1.1711 C.ar    
  19 C19            9.7974     8.1332    -0.2256 C.ar    
  20 C20            8.7006     7.2730    -0.7175 C.2     
  21 O21            7.9533     7.2362     2.5848 O.2     
  22 O22            8.5082     6.9626    -1.8758 O.2     
  23 C23           11.5650     9.6178     1.3126 C.ar    
  24 C24           11.7339     9.5359    -0.0569 C.ar    
  25 C25           10.8536     8.7954    -0.8305 C.ar    
  26 C26           10.5130     8.9606     1.9315 C.ar    
  27 Cl27           8.5089     3.9896     0.5817 Cl      
  28 C28           10.3355     9.0553     3.4250 C.3     
  29 C29            5.4175     8.1404    -0.0610 C.3     
  30 H30           -0.8443     1.7419    -0.6852 H       
  31 H31           -1.1019    -0.3132     0.6485 H       
  32 H32            0.7791    -1.0864     2.0746 H       
  33 H33            2.8736     0.2517     2.1132 H       
  34 H34            2.7115     3.8788    -0.6082 H       
  35 H35            5.9245     2.8188     0.3440 H       
  36 H36            3.4672     6.2786    -0.1833 H       
  37 H37           12.2575    10.1979     1.9045 H       
  38 H38           12.5576    10.0521    -0.5274 H       
  39 H39           10.9906     8.7347    -1.9000 H       
  40 H40           10.8840     8.2467     3.9081 H       
  41 H41           10.7173    10.0139     3.7763 H       
  42 H42            9.2767     8.9737     3.6709 H       
  43 H43            5.5071     8.4357    -1.1064 H       
  44 H44            4.4422     8.4433     0.3199 H       
  45 H45            6.2014     8.6243     0.5217 H       
@<TRIPOS>BOND
   1    1    2 ar
   2    1    6 ar
   3    1   30 1
   4    2    3 ar
   5    2   31 1
   6    3    4 ar
   7    3   32 1
   8    4    5 ar
   9    4   33 1
  10    5    6 ar
  11    5    7 1
  12    7    8 2
  13    7    9 am
  14    9   10 1
  15    9   34 1
  16   10   11 ar
  17   10   15 ar
  18   11   12 ar
  19   11   35 1
  20   12   27 1
  21   12   13 ar
  22   13   14 ar
  23   13   16 1
  24   14   15 ar
  25   14   29 1
  26   15   36 1
  27   16   17 am
  28   16   20 am
  29   17   18 1
  30   17   21 2
  31   18   19 ar
  32   18   26 ar
  33   19   20 1
  34   19   25 ar
  35   20   22 2
  36   23   24 ar
  37   23   26 ar
  38   23   37 1
  39   24   25 ar
  40   24   38 1
  41   25   39 1
  42   26   28 1
  43   28   40 1
  44   28   41 1
  45   28   42 1
  46   29   43 1
  47   29   44 1
  48   29   45 1

#	End of record

