#	Name: ASD01140413
#	Creating user name:	WinNT
#	Creation time:	15. 06. 2019 19:00

#	Modifying user name:	WinNT
#	Modification time:	15. 06. 2019 19:00

#	Program:	/corina/corina34_cracker 3.40 0067  02.08.2006

@<TRIPOS>MOLECULE
ASD01140413
  37   41    0    0    0
SMALL
NO_CHARGES


@<TRIPOS>ATOM
   1 C1            -0.0170     1.4031     0.0098 C.2     
   2 C2             0.0021    -0.0041     0.0020 C.2     
   3 C3             1.1978    -0.6509    -0.0129 C.2     
   4 C4             2.4012     0.0859    -0.0200 C.2     
   5 N5             2.3844     1.4010    -0.0127 N.2     
   6 N6             1.1720     2.0929     0.0021 N.pl3   
   7 N7            -0.4804     3.4868     0.0225 N.2     
   8 N8            -0.9878     2.3041     0.0186 N.2     
   9 C9             0.8374     3.4155     0.0119 C.2     
  10 N10            7.4347    -2.3975    -0.0759 N.pl3   
  11 C11            8.2483    -1.2974    -0.0784 C.2     
  12 C12            7.5063    -0.1790    -0.0668 C.2     
  13 C13            6.1021    -0.5976    -0.0561 C.ar    
  14 C14            4.8877     0.0875    -0.0422 C.ar    
  15 C15            3.6998    -0.6308    -0.0352 C.ar    
  16 C16            3.7254    -2.0298    -0.0421 C.ar    
  17 C17            4.9114    -2.7046    -0.0552 C.ar    
  18 C18            6.1154    -2.0052    -0.0624 C.ar    
  19 C19            1.7764     4.5567     0.0088 C.ar    
  20 C20            1.3177     5.8404    -0.2930 C.ar    
  21 C21            2.1998     6.9029    -0.2939 C.ar    
  22 C22            3.5395     6.6951     0.0042 C.ar    
  23 C23            3.9979     5.4231     0.3040 C.ar    
  24 C24            3.1237     4.3557     0.3132 C.ar    
  25 F25            4.3993     7.7372     0.0013 F       
  26 F26            1.7584     8.1460    -0.5856 F       
  27 H27           -0.9219    -0.5633     0.0082 H       
  28 H28            1.2266    -1.7305    -0.0190 H       
  29 H29            7.7420    -3.3175    -0.0863 H       
  30 H30            9.3279    -1.3250    -0.0876 H       
  31 H31            7.8743     0.8363    -0.0653 H       
  32 H32            4.8714     1.1674    -0.0365 H       
  33 H33            2.7969    -2.5813    -0.0365 H       
  34 H34            4.9162    -3.7846    -0.0600 H       
  35 H35            0.2755     6.0020    -0.5255 H       
  36 H36            5.0413     5.2670     0.5352 H       
  37 H37            3.4823     3.3652     0.5513 H       
@<TRIPOS>BOND
   1    1    2 1
   2    1    6 1
   3    1    8 2
   4    2    3 2
   5    2   27 1
   6    3    4 1
   7    3   28 1
   8    4    5 2
   9    4   15 1
  10    5    6 1
  11    6    9 1
  12    7    8 1
  13    7    9 2
  14    9   19 1
  15   10   11 1
  16   10   18 1
  17   10   29 1
  18   11   12 2
  19   11   30 1
  20   12   13 1
  21   12   31 1
  22   13   14 ar
  23   13   18 ar
  24   14   15 ar
  25   14   32 1
  26   15   16 ar
  27   16   17 ar
  28   16   33 1
  29   17   18 ar
  30   17   34 1
  31   19   20 ar
  32   19   24 ar
  33   20   21 ar
  34   20   35 1
  35   21   22 ar
  36   21   26 1
  37   22   23 ar
  38   22   25 1
  39   23   24 ar
  40   23   36 1
  41   24   37 1

#	End of record

