#	Name: ASD03090064
#	Creating user name:	WinNT
#	Creation time:	15. 06. 2019 20:28

#	Modifying user name:	WinNT
#	Modification time:	15. 06. 2019 20:28

#	Program:	/corina/corina34_cracker 3.40 0067  02.08.2006

@<TRIPOS>MOLECULE
ASD03090064
  57   59    0    0    0
SMALL
NO_CHARGES


@<TRIPOS>ATOM
   1 P1            -0.0009     1.7735    -0.0369 P.3     
   2 C2             0.0464    -0.0379    -0.1219 C.ar    
   3 C3            -0.0032    -0.6738    -1.3483 C.ar    
   4 C4             0.0327    -2.0541    -1.4131 C.ar    
   5 C5             0.1188    -2.7986    -0.2516 C.ar    
   6 C6             0.1693    -2.1627     0.9748 C.ar    
   7 C7             0.1377    -0.7822     1.0394 C.ar    
   8 C8             1.6903     2.4263    -0.1029 C.ar    
   9 C9             2.7056     1.6615    -0.6462 C.ar    
  10 C10            3.9944     2.1590    -0.6966 C.ar    
  11 C11            4.2678     3.4213    -0.2040 C.ar    
  12 C12            3.2523     4.1864     0.3385 C.ar    
  13 C13            1.9627     3.6907     0.3848 C.ar    
  14 C14           -0.9538     2.4200    -1.4385 C.ar    
  15 C15           -0.3031     2.8213    -2.5903 C.ar    
  16 C16           -1.0292     3.3140    -3.6584 C.ar    
  17 C17           -2.4061     3.4050    -3.5749 C.ar    
  18 C18           -3.0568     3.0028    -2.4235 C.ar    
  19 C19           -2.3310     2.5061    -1.3570 C.ar    
  20 C20           -0.7904     2.2882     1.5236 C.3     
  21 C21           -0.0841     1.6345     2.6834 C.ar    
  22 C22           -0.7585     0.7122     3.4770 C.ar    
  23 C23           -0.1106     0.1060     4.5481 C.ar    
  24 C24            1.2015     0.4176     4.8270 C.ar    
  25 C25            1.8822     1.3437     4.0319 C.ar    
  26 C26            1.2295     1.9466     2.9527 C.ar    
  27 N27           -2.0885     0.3947     3.1980 N.am    
  28 C28           -2.9421     0.1234     4.2051 C.2     
  29 O29           -2.5391     0.0874     5.3485 O.2     
  30 C30           -4.3972    -0.1350     3.9105 C.3     
  31 F31           -5.0982    -0.2780     5.1128 F       
  32 F32           -4.9249     0.9405     3.1881 F       
  33 F33           -4.5194    -1.3076     3.1572 F       
  34 C34            3.2467     1.6701     4.3188 C.1     
  35 N35            4.3291     1.9292     4.5463 N.1     
  36 H36           -0.0704    -0.0921    -2.2558 H       
  37 H37           -0.0067    -2.5509    -2.3713 H       
  38 H38            0.1462    -3.8770    -0.3022 H       
  39 H39            0.2362    -2.7443     1.8823 H       
  40 H40            0.1809    -0.2852     1.9973 H       
  41 H41            2.4920     0.6753    -1.0311 H       
  42 H42            4.7878     1.5612    -1.1204 H       
  43 H43            5.2748     3.8097    -0.2426 H       
  44 H44            3.4659     5.1725     0.7236 H       
  45 H45            1.1686     4.2899     0.8053 H       
  46 H46            0.7726     2.7502    -2.6555 H       
  47 H47           -0.5208     3.6282    -4.5580 H       
  48 H48           -2.9733     3.7906    -4.4092 H       
  49 H49           -4.1325     3.0742    -2.3582 H       
  50 H50           -2.8397     2.1885    -0.4589 H       
  51 H51           -0.7262     3.3717     1.6232 H       
  52 H52           -1.8374     1.9852     1.5183 H       
  53 H53           -0.6373    -0.6095     5.1621 H       
  54 H54            1.7038    -0.0530     5.6593 H       
  55 H55            1.7538     2.6594     2.3335 H       
  56 H56           -2.3985     0.3692     2.2793 H       
  57 Br57          10.2748    10.1725    10.6593 Br      
@<TRIPOS>BOND
   1    1    2 1
   2    1    8 1
   3    1   14 1
   4    1   20 1
   5    2    3 ar
   6    2    7 ar
   7    3    4 ar
   8    3   36 1
   9    4    5 ar
  10    4   37 1
  11    5    6 ar
  12    5   38 1
  13    6    7 ar
  14    6   39 1
  15    7   40 1
  16    8    9 ar
  17    8   13 ar
  18    9   10 ar
  19    9   41 1
  20   10   11 ar
  21   10   42 1
  22   11   12 ar
  23   11   43 1
  24   12   13 ar
  25   12   44 1
  26   13   45 1
  27   14   15 ar
  28   14   19 ar
  29   15   16 ar
  30   15   46 1
  31   16   17 ar
  32   16   47 1
  33   17   18 ar
  34   17   48 1
  35   18   19 ar
  36   18   49 1
  37   19   50 1
  38   20   21 1
  39   20   51 1
  40   20   52 1
  41   21   22 ar
  42   21   26 ar
  43   22   23 ar
  44   22   27 1
  45   23   24 ar
  46   23   53 1
  47   24   25 ar
  48   24   54 1
  49   25   26 ar
  50   25   34 1
  51   26   55 1
  52   27   28 am
  53   27   56 1
  54   28   29 2
  55   28   30 1
  56   30   31 1
  57   30   32 1
  58   30   33 1
  59   34   35 3

#	End of record

