#	Name: ASD03092398
#	Creating user name:	WinNT
#	Creation time:	15. 06. 2019 20:32

#	Modifying user name:	WinNT
#	Modification time:	15. 06. 2019 20:32

#	Program:	/corina/corina34_cracker 3.40 0067  02.08.2006

@<TRIPOS>MOLECULE
ASD03092398
  63   67    0    0    0
SMALL
NO_CHARGES


@<TRIPOS>ATOM
   1 C1            -0.1063     2.1223     0.7704 C.3     
   2 C2            -0.1159     0.6065     0.9782 C.3     
   3 C3             1.2137     1.3532     0.8547 C.3     
   4 C4            -0.5726     4.1559    -0.5697 C.2     
   5 C5            -0.5301     2.6499    -0.6018 C.3     
   6 O6            -0.2916     4.7489     0.4503 O.2     
   7 N7            -0.9229     4.8439    -1.6744 N.am    
   8 C8            -0.9643     6.3080    -1.6432 C.3     
   9 S9            -1.4023     7.7519    -5.3475 S.3     
  10 C10           -2.8732     7.4008    -4.5504 C.2     
  11 N11           -2.6408     6.9383    -3.3587 N.2     
  12 C12           -1.3817     6.8276    -2.9948 C.2     
  13 C13           -0.4954     7.2196    -3.9339 C.2     
  14 N14           -4.1309     7.5833    -5.0959 N.3     
  15 C15           -4.0400     8.1220    -6.4608 C.3     
  16 C16           -5.4511     8.3642    -7.0031 C.3     
  17 O17           -6.1924     7.1423    -6.9515 O.3     
  18 C18           -6.3013     6.5900    -5.6368 C.3     
  19 C19           -4.8988     6.3298    -5.0807 C.3     
  20 C20           -7.0787     5.2737    -5.6984 C.3     
  21 C21           -5.3655     8.8491    -8.4517 C.3     
  22 C22            3.1109     8.2650    -4.0120 C.ar    
  23 C23            1.7411     8.3229    -4.1532 C.ar    
  24 C24            0.9744     7.2045    -3.8006 C.ar    
  25 C25            1.6423     6.0711    -3.3173 C.ar    
  26 C26            3.0156     6.1011    -3.2087 C.ar    
  27 N27            3.6998     7.1767    -3.5524 N.ar    
  28 C28            3.7466     4.8896    -2.6901 C.3     
  29 C29            3.9483     9.4585    -4.3933 C.3     
  30 C30            4.3526     9.5975    -5.8624 C.3     
  31 C31            3.2945    10.5296    -5.2686 C.3     
  32 H32           -0.3791     2.7485     1.6198 H       
  33 H33           -0.3950     0.2355     1.9644 H       
  34 H34           -0.4242    -0.0149     0.1374 H       
  35 H35            1.7802     1.2232    -0.0674 H       
  36 H36            1.8094     1.4735     1.7596 H       
  37 H37            0.1873     2.3226    -1.3543 H       
  38 H38           -1.5187     2.2637    -0.8501 H       
  39 H39           -1.1477     4.3696    -2.4902 H       
  40 H40           -1.6817     6.6352    -0.8907 H       
  41 H41            0.0243     6.6941    -1.3950 H       
  42 H42           -3.4897     9.0628    -6.4449 H       
  43 H43           -3.5220     7.4074    -7.1004 H       
  44 H44           -5.9502     9.1187    -6.3949 H       
  45 H45           -6.8251     7.2928    -4.9889 H       
  46 H46           -4.3945     5.5865    -5.6982 H       
  47 H47           -4.9754     5.9623    -4.0574 H       
  48 H48           -6.5530     4.5711    -6.3450 H       
  49 H49           -7.1613     4.8532    -4.6962 H       
  50 H50           -8.0758     5.4590    -6.0980 H       
  51 H51           -4.8680     8.0931    -9.0591 H       
  52 H52           -6.3704     9.0214    -8.8371 H       
  53 H53           -4.7971     9.7784    -8.4908 H       
  54 H54            1.2660     9.2168    -4.5295 H       
  55 H55            1.0891     5.1879    -3.0339 H       
  56 H56            4.0065     4.2375    -3.5239 H       
  57 H57            4.6559     5.2053    -2.1786 H       
  58 H58            3.1061     4.3498    -1.9926 H       
  59 H59            4.6636     9.7906    -3.6409 H       
  60 H60            5.3337    10.0214    -6.0764 H       
  61 H61            4.0128     8.8257    -6.5530 H       
  62 H62            2.2587    10.3711    -5.5686 H       
  63 H63            3.5796    11.5668    -5.0920 H       
@<TRIPOS>BOND
   1    1    2 1
   2    1    3 1
   3    1    5 1
   4    1   32 1
   5    2    3 1
   6    2   33 1
   7    2   34 1
   8    3   35 1
   9    3   36 1
  10    4    5 1
  11    4    6 2
  12    4    7 am
  13    5   37 1
  14    5   38 1
  15    7    8 1
  16    7   39 1
  17    8   12 1
  18    8   40 1
  19    8   41 1
  20    9   10 1
  21    9   13 1
  22   10   11 2
  23   10   14 1
  24   11   12 1
  25   12   13 2
  26   13   24 1
  27   14   15 1
  28   14   19 1
  29   15   16 1
  30   15   42 1
  31   15   43 1
  32   16   17 1
  33   16   21 1
  34   16   44 1
  35   17   18 1
  36   18   19 1
  37   18   20 1
  38   18   45 1
  39   19   46 1
  40   19   47 1
  41   20   48 1
  42   20   49 1
  43   20   50 1
  44   21   51 1
  45   21   52 1
  46   21   53 1
  47   22   23 ar
  48   22   27 ar
  49   22   29 1
  50   23   24 ar
  51   23   54 1
  52   24   25 ar
  53   25   26 ar
  54   25   55 1
  55   26   27 ar
  56   26   28 1
  57   28   56 1
  58   28   57 1
  59   28   58 1
  60   29   30 1
  61   29   31 1
  62   29   59 1
  63   30   31 1
  64   30   60 1
  65   30   61 1
  66   31   62 1
  67   31   63 1

#	End of record

