#	Name: ASD01840549
#	Creating user name:	WinNT
#	Creation time:	15. 06. 2019 19:37

#	Modifying user name:	WinNT
#	Modification time:	15. 06. 2019 19:37

#	Program:	/corina/corina34_cracker 3.40 0067  02.08.2006

@<TRIPOS>MOLECULE
ASD01840549
  50   53    0    0    0
SMALL
NO_CHARGES


@<TRIPOS>ATOM
   1 C1            -0.0178     1.4608     0.0101 C.3     
   2 N2             0.0021    -0.0041     0.0020 N.pl3   
   3 C3             0.6034    -0.6852    -1.0500 C.ar    
   4 N4             1.1615    -0.0053    -2.0397 N.ar    
   5 C5             1.7427    -0.6129    -3.0570 C.ar    
   6 C6             2.3637     0.2080    -4.1577 C.3     
   7 C7             1.7894    -1.9913    -3.1254 C.ar    
   8 C8             2.4559    -2.6751    -4.2912 C.3     
   9 C9             1.2152    -2.7391    -2.1066 C.ar    
  10 C10            1.0959    -4.2226    -1.8835 C.3     
  11 N11            0.3788    -4.4259    -0.6196 N.am    
  12 C12            0.0697    -3.0941    -0.0876 C.3     
  13 C13            0.6194    -2.0770    -1.0526 C.ar    
  14 C14            0.0644    -5.6090    -0.0558 C.2     
  15 O15            0.3805    -6.6444    -0.6026 O.2     
  16 C16           -0.6797    -5.6453     1.2542 C.3     
  17 C17           -0.9088    -7.0997     1.6704 C.3     
  18 C18            0.2430    -7.6956     2.4998 C.3     
  19 N19           -0.8101    -8.3048     3.3417 N.3     
  20 C20           -1.7693    -7.2533     2.9375 C.3     
  21 C21           -0.4942    -8.1984     4.6864 C.ar    
  22 C22           -1.3519    -8.7149     5.6596 C.ar    
  23 C23           -0.9923    -8.5836     6.9867 C.ar    
  24 N24            0.1459    -7.9766     7.2912 N.ar    
  25 C25            0.9342    -7.4995     6.3490 C.ar    
  26 N26            0.6335    -7.6074     5.0708 N.ar    
  27 H27            1.0048     1.8381     0.0023 H       
  28 H28           -0.5450     1.8219    -0.8730 H       
  29 H29           -0.5280     1.8123     0.9069 H       
  30 H30           -0.4044    -0.4986     0.7308 H       
  31 H31            3.4069     0.4106    -3.9155 H       
  32 H32            2.3091    -0.3428    -5.0967 H       
  33 H33            1.8241     1.1499    -4.2571 H       
  34 H34            3.5100    -2.8349    -4.0645 H       
  35 H35            1.9737    -3.6356    -4.4731 H       
  36 H36            2.3661    -2.0495    -5.1792 H       
  37 H37            0.5374    -4.6758    -2.7024 H       
  38 H38            2.0888    -4.6679    -1.8208 H       
  39 H39           -1.0098    -2.9747     0.0052 H       
  40 H40            0.5415    -2.9667     0.8867 H       
  41 H41           -0.0935    -5.1365     2.0193 H       
  42 H42           -1.6410    -5.1444     1.1399 H       
  43 H43           -1.2292    -7.7329     0.8431 H       
  44 H44            0.8456    -8.4227     1.9555 H       
  45 H45            0.8427    -6.9480     3.0191 H       
  46 H46           -1.7582    -6.3764     3.5849 H       
  47 H47           -2.7746    -7.6271     2.7430 H       
  48 H48           -2.2736    -9.2045     5.3817 H       
  49 H49           -1.6311    -8.9706     7.7668 H       
  50 H50            1.8546    -7.0105     6.6323 H       
@<TRIPOS>BOND
   1    1    2 1
   2    1   27 1
   3    1   28 1
   4    1   29 1
   5    2    3 1
   6    2   30 1
   7    3   13 ar
   8    3    4 ar
   9    4    5 ar
  10    5    6 1
  11    5    7 ar
  12    6   31 1
  13    6   32 1
  14    6   33 1
  15    7    8 1
  16    7    9 ar
  17    8   34 1
  18    8   35 1
  19    8   36 1
  20    9   13 ar
  21    9   10 1
  22   10   11 1
  23   10   37 1
  24   10   38 1
  25   11   12 1
  26   11   14 am
  27   12   13 1
  28   12   39 1
  29   12   40 1
  30   14   15 2
  31   14   16 1
  32   16   17 1
  33   16   41 1
  34   16   42 1
  35   17   20 1
  36   17   18 1
  37   17   43 1
  38   18   19 1
  39   18   44 1
  40   18   45 1
  41   19   20 1
  42   19   21 1
  43   20   46 1
  44   20   47 1
  45   21   26 ar
  46   21   22 ar
  47   22   23 ar
  48   22   48 1
  49   23   24 ar
  50   23   49 1
  51   24   25 ar
  52   25   26 ar
  53   25   50 1

#	End of record

