#	Name: ASD01811178
#	Creating user name:	WinNT
#	Creation time:	15. 06. 2019 19:26

#	Modifying user name:	WinNT
#	Modification time:	15. 06. 2019 19:26

#	Program:	/corina/corina34_cracker 3.40 0067  02.08.2006

@<TRIPOS>MOLECULE
ASD01811178
  42   44    0    0    0
SMALL
NO_CHARGES


@<TRIPOS>ATOM
   1 C1             0.3774     1.4533     0.0421 C.2     
   2 C2             0.1937    -0.0137     0.0175 C.ar    
   3 C3             1.3033    -0.8567    -0.0793 C.ar    
   4 C4             1.1334    -2.2265    -0.1019 C.ar    
   5 C5            -0.1329    -2.7728    -0.0291 C.ar    
   6 C6            -1.2507    -1.9417     0.0674 C.ar    
   7 C7            -1.0861    -0.5585     0.0965 C.ar    
   8 O8             1.4969     1.9249     0.0845 O.2     
   9 N9            -0.6962     2.2675     0.0119 N.am    
  10 C10            2.6889    -0.2695    -0.1596 C.3     
  11 N11           -4.1757    -3.9576     0.2730 N.2     
  12 N12           -2.9006    -3.8055     0.2203 N.2     
  13 C13           -2.6061    -2.5285     0.1447 C.2     
  14 N14           -3.7953    -1.8400     0.1514 N.pl3   
  15 C15           -4.7705    -2.7890     0.2343 C.2     
  16 O16           -6.1064    -2.5665     0.2700 O.3     
  17 C17           -6.9531    -3.7142     0.3590 C.3     
  18 C18           -8.4162    -3.2676     0.3876 C.3     
  19 C19           -0.3087    -4.2693    -0.0545 C.3     
  20 C20            0.0792    -4.9124    -1.3964 C.3     
  21 C21            0.7064    -6.0536    -0.5784 C.3     
  22 C22            0.8698    -5.0386     0.5652 C.3     
  23 H23            1.9946    -2.8738    -0.1772 H       
  24 H24           -1.9471     0.0887     0.1756 H       
  25 H25           -1.5894     1.8911    -0.0259 H       
  26 H26           -0.5757     3.2298     0.0281 H       
  27 H27            3.0449    -0.0397     0.8446 H       
  28 H28            3.3614    -0.9881    -0.6280 H       
  29 H29            2.6624     0.6441    -0.7536 H       
  30 H30           -3.9158    -0.8786     0.1070 H       
  31 H31           -6.7863    -4.3568    -0.5055 H       
  32 H32           -6.7235    -4.2653     1.2710 H       
  33 H33           -8.6458    -2.7166    -0.5244 H       
  34 H34           -9.0621    -4.1431     0.4555 H       
  35 H35           -8.5831    -2.6251     1.2521 H       
  36 H36           -1.2830    -4.5874     0.3166 H       
  37 H37           -0.7768    -5.2237    -1.9951 H       
  38 H38            0.8060    -4.3321    -1.9648 H       
  39 H39            0.0103    -6.8607    -0.3498 H       
  40 H40            1.6531    -6.4118    -0.9830 H       
  41 H41            1.8127    -4.4927     0.5331 H       
  42 H42            0.6520    -5.4516     1.5501 H       
@<TRIPOS>BOND
   1    1    2 1
   2    1    8 2
   3    1    9 am
   4    2    3 ar
   5    2    7 ar
   6    3    4 ar
   7    3   10 1
   8    4    5 ar
   9    4   23 1
  10    5    6 ar
  11    5   19 1
  12    6    7 ar
  13    6   13 1
  14    7   24 1
  15    9   25 1
  16    9   26 1
  17   10   27 1
  18   10   28 1
  19   10   29 1
  20   11   12 1
  21   11   15 2
  22   12   13 2
  23   13   14 1
  24   14   15 1
  25   14   30 1
  26   15   16 1
  27   16   17 1
  28   17   18 1
  29   17   31 1
  30   17   32 1
  31   18   33 1
  32   18   34 1
  33   18   35 1
  34   19   20 1
  35   19   22 1
  36   19   36 1
  37   20   21 1
  38   20   37 1
  39   20   38 1
  40   21   22 1
  41   21   39 1
  42   21   40 1
  43   22   41 1
  44   22   42 1

#	End of record

