#	Name: ASD01810351
#	Creating user name:	WinNT
#	Creation time:	15. 06. 2019 19:24

#	Modifying user name:	WinNT
#	Modification time:	15. 06. 2019 19:24

#	Program:	/corina/corina34_cracker 3.40 0067  02.08.2006

@<TRIPOS>MOLECULE
ASD01810351
  61   63    0    0    0
SMALL
NO_CHARGES


@<TRIPOS>ATOM
   1 C1            -2.7918     0.3246    -0.1565 C.3     
   2 O2            -2.5423    -1.0819    -0.1942 O.3     
   3 C3            -1.9327    -1.6303     0.8911 C.2     
   4 N4            -1.5856    -0.9153     1.9292 N.2     
   5 S5            -0.8693    -1.9879     3.0310 S.3     
   6 N6            -1.0544    -3.3721     2.0680 N.2     
   7 C7            -1.6458    -2.9807     0.9696 C.2     
   8 O8            -1.9510    -3.8449    -0.0355 O.3     
   9 C9            -1.5954    -5.2155     0.1571 C.3     
  10 C10           -2.0147    -6.0284    -1.0694 C.3     
  11 O11           -1.2621    -5.5986    -2.2056 O.3     
  12 C12           -1.5784    -6.2983    -3.4108 C.3     
  13 C13           -0.7175    -5.7587    -4.5548 C.3     
  14 O14            0.6568    -6.0530    -4.2964 O.3     
  15 C15            1.5509    -5.5893    -5.3101 C.3     
  16 C16            2.9868    -5.9574    -4.9308 C.3     
  17 O17            3.1279    -7.3793    -4.9238 O.3     
  18 C18            4.4392    -7.8316    -4.5800 C.3     
  19 C19            4.4738    -9.3610    -4.6041 C.3     
  20 O20            4.2530    -9.8215    -5.9387 O.3     
  21 C21            4.2529   -11.1662    -6.1353 C.2     
  22 N22            4.4412   -12.0409    -5.1795 N.2     
  23 S23            4.3524   -13.5666    -5.9091 S.3     
  24 N24            4.0861   -13.0760    -7.3679 N.2     
  25 C25            4.0464   -11.7672    -7.3759 C.2     
  26 C26            3.8107   -10.9866    -8.6081 C.2     
  27 C27            3.5160   -11.6344    -9.7140 C.2     
  28 C28            3.2651   -10.9360   -11.0214 C.3     
  29 C29            2.9999    -9.4495   -10.7698 C.3     
  30 N30            4.0577    -8.9282    -9.8886 N.3     
  31 C31            3.9129    -9.4900    -8.5380 C.3     
  32 C32            4.0362    -7.4598    -9.8519 C.3     
  33 H33           -1.8474     0.8584    -0.0501 H       
  34 H34           -3.2806     0.6318    -1.0810 H       
  35 H35           -3.4376     0.5565     0.6904 H       
  36 H36           -0.5171    -5.2953     0.2946 H       
  37 H37           -2.1039    -5.6021     1.0403 H       
  38 H38           -1.8247    -7.0860    -0.8867 H       
  39 H39           -3.0773    -5.8776    -1.2594 H       
  40 H40           -1.3794    -7.3615    -3.2766 H       
  41 H41           -2.6321    -6.1531    -3.6493 H       
  42 H42           -1.0202    -6.2290    -5.4903 H       
  43 H43           -0.8499    -4.6794    -4.6312 H       
  44 H44            1.2954    -6.0561    -6.2613 H       
  45 H45            1.4657    -4.5065    -5.4022 H       
  46 H46            3.6761    -5.5274    -5.6575 H       
  47 H47            3.2126    -5.5649    -3.9393 H       
  48 H48            5.1586    -7.4405    -5.2994 H       
  49 H49            4.6952    -7.4780    -3.5812 H       
  50 H50            5.4469    -9.7079    -4.2564 H       
  51 H51            3.6939    -9.7524    -3.9509 H       
  52 H52            3.4519   -12.7120    -9.6817 H       
  53 H53            4.1387   -11.0449   -11.6642 H       
  54 H54            2.3985   -11.3814   -11.5100 H       
  55 H55            3.0133    -8.9098   -11.7168 H       
  56 H56            2.0294    -9.3270   -10.2891 H       
  57 H57            3.0158    -9.0824    -8.0718 H       
  58 H58            4.7827    -9.2196    -7.9393 H       
  59 H59            3.0476    -7.1185    -9.5449 H       
  60 H60            4.7809    -7.1032    -9.1404 H       
  61 H61            4.2641    -7.0683   -10.8433 H       
@<TRIPOS>BOND
   1    1    2 1
   2    1   33 1
   3    1   34 1
   4    1   35 1
   5    2    3 1
   6    3    4 2
   7    3    7 1
   8    4    5 1
   9    5    6 1
  10    6    7 2
  11    7    8 1
  12    8    9 1
  13    9   10 1
  14    9   36 1
  15    9   37 1
  16   10   11 1
  17   10   38 1
  18   10   39 1
  19   11   12 1
  20   12   13 1
  21   12   40 1
  22   12   41 1
  23   13   14 1
  24   13   42 1
  25   13   43 1
  26   14   15 1
  27   15   16 1
  28   15   44 1
  29   15   45 1
  30   16   17 1
  31   16   46 1
  32   16   47 1
  33   17   18 1
  34   18   19 1
  35   18   48 1
  36   18   49 1
  37   19   20 1
  38   19   50 1
  39   19   51 1
  40   20   21 1
  41   21   22 2
  42   21   25 1
  43   22   23 1
  44   23   24 1
  45   24   25 2
  46   25   26 1
  47   26   27 2
  48   26   31 1
  49   27   28 1
  50   27   52 1
  51   28   29 1
  52   28   53 1
  53   28   54 1
  54   29   30 1
  55   29   55 1
  56   29   56 1
  57   30   31 1
  58   30   32 1
  59   31   57 1
  60   31   58 1
  61   32   59 1
  62   32   60 1
  63   32   61 1

#	End of record

