#	Name: ASD01910626
#	Creating user name:	WinNT
#	Creation time:	15. 06. 2019 19:56

#	Modifying user name:	WinNT
#	Modification time:	15. 06. 2019 19:56

#	Program:	/corina/corina34_cracker 3.40 0067  02.08.2006

@<TRIPOS>MOLECULE
ASD01910626
  43   46    0    0    0
SMALL
NO_CHARGES


@<TRIPOS>ATOM
   1 C1            -0.6948     1.8017    -1.9523 C.ar    
   2 C2            -0.7605     0.4368    -1.7134 C.ar    
   3 C3             0.3209    -0.2031    -1.1201 C.ar    
   4 C4             1.4324     0.5509    -0.7868 C.ar    
   5 C5             1.4291     1.9194    -1.0563 C.ar    
   6 N6             0.3754     2.4936    -1.6247 N.ar    
   7 C7             2.6098     2.7382    -0.7058 C.2     
   8 N8             2.7541     4.0369    -0.8977 N.2     
   9 C9             3.9750     4.3366    -0.4281 C.2     
  10 N10            4.5064     3.2365     0.0174 N.2     
  11 O11            3.7403     2.3071    -0.1256 O.3     
  12 C12            4.6146     5.7011    -0.4191 C.3     
  13 C13            4.9321     6.1069     1.0220 C.3     
  14 C14            5.5516     7.5062     1.0350 C.3     
  15 C15            6.8600     7.4885     0.2383 C.3     
  16 N16            6.5879     6.9615    -1.1060 N.am    
  17 C17            5.9123     5.6629    -1.2323 C.3     
  18 C18            6.9512     7.6560    -2.2024 C.2     
  19 C19            7.5538     8.9974    -2.0609 C.ar    
  20 O20            6.7831     7.1787    -3.3077 O.2     
  21 F21           -1.8649    -0.2631    -2.0538 F       
  22 C22            8.6288     9.1945    -1.1916 C.ar    
  23 C23            9.1876    10.4480    -1.0638 C.ar    
  24 C24            8.6843    11.5122    -1.7964 C.ar    
  25 C25            7.6168    11.3221    -2.6606 C.ar    
  26 C26            7.0542    10.0715    -2.8004 C.ar    
  27 F27            9.2357    12.7388    -1.6674 F       
  28 H28           -1.5312     2.3022    -2.4174 H       
  29 H29            0.2943    -1.2647    -0.9233 H       
  30 H30            2.2904     0.0861    -0.3241 H       
  31 H31            3.9303     6.4266    -0.8589 H       
  32 H32            4.0136     6.1110     1.6089 H       
  33 H33            5.6352     5.3944     1.4533 H       
  34 H34            4.8589     8.2150     0.5812 H       
  35 H35            5.7560     7.8041     2.0634 H       
  36 H36            7.2543     8.5017     0.1606 H       
  37 H37            7.5855     6.8493     0.7414 H       
  38 H38            6.5606     4.8749    -0.8491 H       
  39 H39            5.6813     5.4716    -2.2802 H       
  40 H40            9.0214     8.3664    -0.6202 H       
  41 H41           10.0188    10.6017    -0.3915 H       
  42 H42            7.2283    12.1544    -3.2287 H       
  43 H43            6.2230     9.9244    -3.4740 H       
@<TRIPOS>BOND
   1    1    2 ar
   2    1    6 ar
   3    1   28 1
   4    2    3 ar
   5    2   21 1
   6    3    4 ar
   7    3   29 1
   8    4    5 ar
   9    4   30 1
  10    5    6 ar
  11    5    7 1
  12    7    8 2
  13    7   11 1
  14    8    9 1
  15    9   10 2
  16    9   12 1
  17   10   11 1
  18   12   13 1
  19   12   17 1
  20   12   31 1
  21   13   14 1
  22   13   32 1
  23   13   33 1
  24   14   15 1
  25   14   34 1
  26   14   35 1
  27   15   16 1
  28   15   36 1
  29   15   37 1
  30   16   17 1
  31   16   18 am
  32   17   38 1
  33   17   39 1
  34   18   19 1
  35   18   20 2
  36   19   22 ar
  37   19   26 ar
  38   22   23 ar
  39   22   40 1
  40   23   24 ar
  41   23   41 1
  42   24   25 ar
  43   24   27 1
  44   25   26 ar
  45   25   42 1
  46   26   43 1

#	End of record

