#	Name: ASD03240043
#	Creating user name:	WinNT
#	Creation time:	15. 06. 2019 20:34

#	Modifying user name:	WinNT
#	Modification time:	15. 06. 2019 20:34

#	Program:	/corina/corina34_cracker 3.40 0067  02.08.2006

@<TRIPOS>MOLECULE
ASD03240043
  69   75    0    0    0
SMALL
NO_CHARGES


@<TRIPOS>ATOM
   1 C1            -0.0172     1.4139     0.0098 C.ar    
   2 C2             0.0021    -0.0041     0.0020 C.ar    
   3 N3             1.1278     2.1023     0.0026 N.ar    
   4 C4             2.2976     1.4965    -0.0119 C.ar    
   5 C5             2.3947     0.0859    -0.0209 C.ar    
   6 C6             1.2384    -0.6757    -0.0134 C.ar    
   7 C7             3.7230    -0.5719    -0.0373 C.ar    
   8 C8             3.5362     2.3096    -0.0193 C.ar    
   9 C9             3.5726     3.5234    -0.7049 C.ar    
  10 C10            4.7289     4.2764    -0.7078 C.ar    
  11 C11            5.8506     3.8292    -0.0328 C.ar    
  12 C12            5.8206     2.6257     0.6487 C.ar    
  13 C13            4.6682     1.8669     0.6640 C.ar    
  14 C14            4.0148    -1.5823     0.8779 C.ar    
  15 C15            5.2529    -2.1914     0.8576 C.ar    
  16 C16            6.2038    -1.8009    -0.0681 C.ar    
  17 C17            5.9201    -0.7986    -0.9783 C.ar    
  18 C18            4.6833    -0.1865    -0.9716 C.ar    
  19 C19            7.5542    -2.4696    -0.0847 C.3     
  20 N20            7.5137    -3.6326    -0.9813 N.3     
  21 C21            8.8617    -4.1686    -1.2091 C.3     
  22 C22            8.7989    -5.2822    -2.2570 C.3     
  23 C23            7.8657    -6.3905    -1.7615 C.3     
  24 C24            6.4818    -5.7962    -1.4857 C.3     
  25 C25            6.6117    -4.6676    -0.4602 C.3     
  26 N26            7.7559    -7.4323    -2.7857 N.am    
  27 C27            8.1085    -8.7705    -2.6282 C.ar    
  28 C28            7.8429    -9.4036    -3.8440 C.ar    
  29 N29            7.3371    -8.4304    -4.7025 N.am    
  30 C30            7.2915    -7.2605    -4.0377 C.2     
  31 C31            8.6265    -9.4998    -1.5686 C.ar    
  32 C32            8.8775   -10.8493    -1.7206 C.ar    
  33 C33            8.6142   -11.4770    -2.9261 C.ar    
  34 C34            8.0982   -10.7590    -3.9870 C.ar    
  35 O35            6.8983    -6.2061    -4.5008 O.2     
  36 C36           -1.2097    -0.7146     0.0103 C.ar    
  37 C37           -2.3893    -0.0346     0.0256 C.ar    
  38 C38           -2.4109     1.3587     0.0332 C.ar    
  39 C39           -1.2562     2.0791     0.0311 C.ar    
  40 H40            1.2841    -1.7547    -0.0200 H       
  41 H41            2.6978     3.8731    -1.2328 H       
  42 H42            4.7584     5.2166    -1.2384 H       
  43 H43            6.7534     4.4219    -0.0382 H       
  44 H44            6.6997     2.2814     1.1733 H       
  45 H45            4.6460     0.9275     1.1964 H       
  46 H46            3.2735    -1.8875     1.6015 H       
  47 H47            5.4801    -2.9742     1.5661 H       
  48 H48            6.6666    -0.4973    -1.6983 H       
  49 H49            4.4629     0.5959    -1.6827 H       
  50 H50            8.3050    -1.7635    -0.4392 H       
  51 H51            7.8101    -2.7966     0.9231 H       
  52 H52            9.5142    -3.3713    -1.5652 H       
  53 H53            9.2555    -4.5702    -0.2755 H       
  54 H54            8.4182    -4.8782    -3.1950 H       
  55 H55            9.7972    -5.6905    -2.4144 H       
  56 H56            8.2666    -6.8212    -0.8440 H       
  57 H57            6.0646    -5.4003    -2.4116 H       
  58 H58            5.8246    -6.5716    -1.0921 H       
  59 H59            7.0160    -5.0669     0.4699 H       
  60 H60            5.6300    -4.2328    -0.2723 H       
  61 H61            7.0612    -8.5722    -5.6216 H       
  62 H62            8.8336    -9.0134    -0.6268 H       
  63 H63            9.2813   -11.4173    -0.8955 H       
  64 H64            8.8131   -12.5327    -3.0373 H       
  65 H65            7.8937   -11.2522    -4.9258 H       
  66 H66           -1.2057    -1.7945     0.0041 H       
  67 H67           -3.3202    -0.5822     0.0316 H       
  68 H68           -3.3593     1.8752     0.0450 H       
  69 H69           -1.2914     3.1585     0.0371 H       
@<TRIPOS>BOND
   1    1    2 ar
   2    1    3 ar
   3    1   39 ar
   4    2   36 ar
   5    2    6 ar
   6    3    4 ar
   7    4    5 ar
   8    4    8 1
   9    5    6 ar
  10    5    7 1
  11    6   40 1
  12    7   14 ar
  13    7   18 ar
  14    8    9 ar
  15    8   13 ar
  16    9   10 ar
  17    9   41 1
  18   10   11 ar
  19   10   42 1
  20   11   12 ar
  21   11   43 1
  22   12   13 ar
  23   12   44 1
  24   13   45 1
  25   14   15 ar
  26   14   46 1
  27   15   16 ar
  28   15   47 1
  29   16   17 ar
  30   16   19 1
  31   17   18 ar
  32   17   48 1
  33   18   49 1
  34   19   20 1
  35   19   50 1
  36   19   51 1
  37   20   21 1
  38   20   25 1
  39   21   22 1
  40   21   52 1
  41   21   53 1
  42   22   23 1
  43   22   54 1
  44   22   55 1
  45   23   24 1
  46   23   26 1
  47   23   56 1
  48   24   25 1
  49   24   57 1
  50   24   58 1
  51   25   59 1
  52   25   60 1
  53   26   27 1
  54   26   30 am
  55   27   28 ar
  56   27   31 ar
  57   28   29 1
  58   28   34 ar
  59   29   30 am
  60   29   61 1
  61   30   35 2
  62   31   32 ar
  63   31   62 1
  64   32   33 ar
  65   32   63 1
  66   33   34 ar
  67   33   64 1
  68   34   65 1
  69   36   37 ar
  70   36   66 1
  71   37   38 ar
  72   37   67 1
  73   38   39 ar
  74   38   68 1
  75   39   69 1

#	End of record

