#	Name: ASD02448148
#	Creating user name:	WinNT
#	Creation time:	15. 06. 2019 20:21

#	Modifying user name:	WinNT
#	Modification time:	15. 06. 2019 20:21

#	Program:	/corina/corina34_cracker 3.40 0067  02.08.2006

@<TRIPOS>MOLECULE
ASD02448148
  78   84    0    0    0
SMALL
NO_CHARGES


@<TRIPOS>ATOM
   1 C1            -0.0166     1.3764     0.0096 C.ar    
   2 C2             0.0021    -0.0041     0.0020 C.ar    
   3 C3             1.2128    -0.6822    -0.0132 C.ar    
   4 C4             2.4076     0.0285    -0.0207 C.ar    
   5 C5             2.3888     1.4109    -0.0131 C.ar    
   6 C6             1.1765     2.0880     0.0020 C.ar    
   7 N7             1.1567     3.4859     0.0093 N.am    
   8 C8             0.0892     4.3759    -0.4656 C.3     
   9 C9             0.4571     5.8128    -0.2807 C.2     
  10 N10            1.6620     6.0176     0.2700 N.am    
  11 S11            2.3371     4.5251     0.5660 S.o2    
  12 O12           -0.2770     6.7224    -0.6041 O.2     
  13 O13            2.4107     4.3706     1.9767 O.2     
  14 O14            3.4509     4.3884    -0.3059 O.2     
  15 N15            1.2311    -2.0864    -0.0204 N.pl3   
  16 C16            0.7666    -2.8988    -1.0193 C.2     
  17 C17            1.7184    -2.8905     0.9600 C.2     
  18 N18            1.5638    -4.1346     0.6011 N.2     
  19 C19            0.9801    -4.1780    -0.6136 C.2     
  20 C20            0.6327    -5.4046    -1.3725 C.ar    
  21 C21            0.9096    -6.6618    -0.8355 C.ar    
  22 C22            0.0234    -5.3048    -2.6215 C.ar    
  23 C23           -0.2979    -6.4488    -3.3237 C.ar    
  24 C24           -0.0160    -7.6943    -2.7895 C.ar    
  25 C25            0.5841    -7.8000    -1.5463 C.ar    
  26 C26            1.2649    -2.2844     3.3016 C.ar    
  27 C27            0.9514    -3.3614     4.1110 C.ar    
  28 C28            0.6017    -1.0804     3.4563 C.ar    
  29 C29           -0.3769    -0.9475     4.4204 C.ar    
  30 C30           -0.6966    -2.0291     5.2385 C.ar    
  31 C31           -0.0260    -3.2399     5.0778 C.ar    
  32 C32           -1.7475    -1.8921     6.2772 C.ar    
  33 Cl33          -0.4229    -9.1289    -3.6783 Cl      
  34 Cl34           1.6626    -6.7953     0.7230 Cl      
  35 C35            2.3371    -2.4213     2.2516 C.3     
  36 C36           -2.0672    -2.9738     7.0954 C.ar    
  37 C37           -3.0452    -2.8406     8.0602 C.ar    
  38 C38           -3.7074    -1.6362     8.2157 C.ar    
  39 C39           -3.3940    -0.5592     7.4063 C.ar    
  40 C40           -2.4140    -0.6797     6.4418 C.ar    
  41 C41           -4.7746    -1.4971     9.2706 C.3     
  42 C42           -4.3774    -0.3959    10.2558 C.3     
  43 C43           -5.4609    -0.2546    11.3267 C.3     
  44 C44           -6.7900     0.1104    10.6625 C.3     
  45 C45           -7.1872    -0.9908     9.6774 C.3     
  46 C46           -6.1037    -1.1320     8.6064 C.3     
  47 F47            3.5865    -0.6313    -0.0351 F       
  48 H48           -0.9593     1.9033     0.0169 H       
  49 H49           -0.9259    -0.5565     0.0083 H       
  50 H50            3.3165     1.9639    -0.0186 H       
  51 H51           -0.0891     4.1864    -1.5241 H       
  52 H52           -0.8241     4.1667     0.0914 H       
  53 H53            2.0654     6.8782     0.4635 H       
  54 H54            0.3171    -2.5841    -1.9495 H       
  55 H55           -0.1975    -4.3337    -3.0394 H       
  56 H56           -0.7705    -6.3721    -4.2917 H       
  57 H57            0.8023    -8.7741    -1.1340 H       
  58 H58            1.4723    -4.2992     3.9860 H       
  59 H59            0.8503    -0.2427     2.8216 H       
  60 H60           -0.8936    -0.0068     4.5408 H       
  61 H61           -0.2702    -4.0816     5.7090 H       
  62 H62            3.0799    -3.1469     2.5832 H       
  63 H63            2.8174    -1.4556     2.0946 H       
  64 H64           -1.5510    -3.9147     6.9745 H       
  65 H65           -3.2940    -3.6784     8.6946 H       
  66 H66           -3.9144     0.3788     7.5318 H       
  67 H67           -2.1701     0.1619     5.8104 H       
  68 H68           -4.8826    -2.4410     9.8049 H       
  69 H69           -3.4305    -0.6560    10.7289 H       
  70 H70           -4.2694     0.5480     9.7214 H       
  71 H71           -5.5689    -1.1985    11.8610 H       
  72 H72           -5.1779     0.5299    12.0286 H       
  73 H73           -7.5619     0.2111    11.4255 H       
  74 H74           -6.6820     1.0543    10.1282 H       
  75 H75           -7.2952    -1.9347    10.2117 H       
  76 H76           -8.1340    -0.7307     9.2042 H       
  77 H77           -5.9957    -0.1881     8.0721 H       
  78 H78           -6.3866    -1.9165     7.9045 H       
@<TRIPOS>BOND
   1    1    2 ar
   2    1    6 ar
   3    1   48 1
   4    2    3 ar
   5    2   49 1
   6    3    4 ar
   7    3   15 1
   8    4    5 ar
   9    4   47 1
  10    5    6 ar
  11    5   50 1
  12    6    7 1
  13    7    8 1
  14    7   11 am
  15    8    9 1
  16    8   51 1
  17    8   52 1
  18    9   10 am
  19    9   12 2
  20   10   11 am
  21   10   53 1
  22   11   13 2
  23   11   14 2
  24   15   16 1
  25   15   17 1
  26   16   19 2
  27   16   54 1
  28   17   18 2
  29   17   35 1
  30   18   19 1
  31   19   20 1
  32   20   21 ar
  33   20   22 ar
  34   21   34 1
  35   21   25 ar
  36   22   23 ar
  37   22   55 1
  38   23   24 ar
  39   23   56 1
  40   24   25 ar
  41   24   33 1
  42   25   57 1
  43   26   27 ar
  44   26   28 ar
  45   26   35 1
  46   27   31 ar
  47   27   58 1
  48   28   29 ar
  49   28   59 1
  50   29   30 ar
  51   29   60 1
  52   30   31 ar
  53   30   32 1
  54   31   61 1
  55   32   36 ar
  56   32   40 ar
  57   35   62 1
  58   35   63 1
  59   36   37 ar
  60   36   64 1
  61   37   38 ar
  62   37   65 1
  63   38   39 ar
  64   38   41 1
  65   39   40 ar
  66   39   66 1
  67   40   67 1
  68   41   42 1
  69   41   46 1
  70   41   68 1
  71   42   43 1
  72   42   69 1
  73   42   70 1
  74   43   44 1
  75   43   71 1
  76   43   72 1
  77   44   45 1
  78   44   73 1
  79   44   74 1
  80   45   46 1
  81   45   75 1
  82   45   76 1
  83   46   77 1
  84   46   78 1

#	End of record

