#	Name: ASD03082438
#	Creating user name:	WinNT
#	Creation time:	15. 06. 2019 20:27

#	Modifying user name:	WinNT
#	Modification time:	15. 06. 2019 20:27

#	Program:	/corina/corina34_cracker 3.40 0067  02.08.2006

@<TRIPOS>MOLECULE
ASD03082438
  44   46    0    0    0
SMALL
NO_CHARGES


@<TRIPOS>ATOM
   1 C1             1.0929     3.4346    -0.4850 C.ar    
   2 C2             0.0373     4.0448    -1.1524 C.ar    
   3 C3            -0.0135     5.4212    -1.2530 C.ar    
   4 C4             0.9841     6.1953    -0.6909 C.ar    
   5 C5             2.0405     5.5918    -0.0233 C.ar    
   6 N6             1.1449     2.0423    -0.3834 N.pl3   
   7 C7             2.3809     1.3931    -0.2951 C.2     
   8 C8             2.5760     0.0183    -0.0776 C.2     
   9 N9             3.5585     1.9617    -0.4067 N.2     
  10 N10            4.5385     0.9717    -0.2588 N.pl3   
  11 C11            3.9075    -0.2146    -0.0576 C.2     
  12 C12            5.9215     1.1689    -0.3124 C.ar    
  13 C13            6.7438     0.2817    -1.0045 C.ar    
  14 C14            6.5129     2.2610     0.3200 C.ar    
  15 C15            7.8814     2.4200     0.2435 C.ar    
  16 N16            8.6269     1.5547    -0.4172 N.ar    
  17 C17            8.1040     0.5117    -1.0335 C.ar    
  18 C18            8.5327     3.5971     0.9227 C.3     
  19 C19            9.0045    -0.4440    -1.7730 C.3     
  20 C20            2.0983     4.2104     0.0755 C.ar    
  21 O21            3.0205     6.3544     0.5287 O.3     
  22 C22            4.5727    -1.5507     0.1511 C.3     
  23 C23            2.8995     7.7709     0.3837 C.3     
  24 F24            1.7086     8.2006     0.9789 F       
  25 F25            3.9845     8.3978     1.0059 F       
  26 F26            2.8870     8.1011    -0.9757 F       
  27 C27            4.6222    -2.2791    -1.1271 C.1     
  28 N28            4.6604    -2.8413    -2.1135 N.1     
  29 H29           -0.7433     3.4422    -1.5928 H       
  30 H30           -0.8343     5.8936    -1.7722 H       
  31 H31            0.9416     7.2715    -0.7716 H       
  32 H32            0.3240     1.5257    -0.3742 H       
  33 H33            1.7995    -0.7211     0.0514 H       
  34 H34            6.3223    -0.5741    -1.5107 H       
  35 H35            5.9084     2.9731     0.8621 H       
  36 H36            8.8022     3.3243     1.9430 H       
  37 H37            9.4301     3.8825     0.3737 H       
  38 H38            7.8368     4.4358     0.9426 H       
  39 H39            9.3299    -1.2340    -1.0962 H       
  40 H40            8.4600    -0.8832    -2.6089 H       
  41 H41            9.8749     0.0939    -2.1488 H       
  42 H42            2.9197     3.7390     0.5947 H       
  43 H43            5.5863    -1.3979     0.5218 H       
  44 H44            4.0036    -2.1303     0.8779 H       
@<TRIPOS>BOND
   1    1    2 ar
   2    1    6 1
   3    1   20 ar
   4    2    3 ar
   5    2   29 1
   6    3    4 ar
   7    3   30 1
   8    4    5 ar
   9    4   31 1
  10    5   20 ar
  11    5   21 1
  12    6    7 1
  13    6   32 1
  14    7    8 1
  15    7    9 2
  16    8   11 2
  17    8   33 1
  18    9   10 1
  19   10   11 1
  20   10   12 1
  21   11   22 1
  22   12   13 ar
  23   12   14 ar
  24   13   17 ar
  25   13   34 1
  26   14   15 ar
  27   14   35 1
  28   15   16 ar
  29   15   18 1
  30   16   17 ar
  31   17   19 1
  32   18   36 1
  33   18   37 1
  34   18   38 1
  35   19   39 1
  36   19   40 1
  37   19   41 1
  38   20   42 1
  39   21   23 1
  40   22   27 1
  41   22   43 1
  42   22   44 1
  43   23   24 1
  44   23   25 1
  45   23   26 1
  46   27   28 3

#	End of record

