#	Name: ASD01880956
#	Creating user name:	WinNT
#	Creation time:	15. 06. 2019 19:41

#	Modifying user name:	WinNT
#	Modification time:	15. 06. 2019 19:41

#	Program:	/corina/corina34_cracker 3.40 0067  02.08.2006

@<TRIPOS>MOLECULE
ASD01880956
  48   50    0    0    0
SMALL
NO_CHARGES


@<TRIPOS>ATOM
   1 N1            -0.0158     1.3147     0.0093 N.ar    
   2 C2             0.0021    -0.0041     0.0020 C.ar    
   3 N3             1.1328    -0.6834    -0.0124 N.ar    
   4 C4             2.3019    -0.0604    -0.0202 C.ar    
   5 C5             2.3295     1.3216    -0.0131 C.ar    
   6 C6             1.1168     2.0083     0.0022 C.ar    
   7 C7             3.6389     2.0675    -0.0211 C.3     
   8 O8             4.7196     1.1327    -0.0360 O.3     
   9 C9             5.9766     1.6442    -0.0448 C.ar    
  10 C10            7.0748     0.7891    -0.0594 C.ar    
  11 C11            8.3459     1.3065    -0.0688 C.ar    
  12 C12            8.5469     2.6911    -0.0637 C.ar    
  13 C13            7.4401     3.5466    -0.0489 C.ar    
  14 C14            6.1655     3.0203    -0.0449 C.ar    
  15 C15            9.7170     0.6777    -0.0853 C.3     
  16 N16           10.6765     1.7878    -0.0890 N.am    
  17 C17            9.9968     2.9473    -0.0765 C.2     
  18 O18           10.5068     4.0511    -0.0762 O.2     
  19 Cl19          -1.5030    -0.8692     0.0123 Cl      
  20 Cl20           7.6707     5.2672    -0.0418 Cl      
  21 C21           -0.0160     5.5101     0.0309 C.3     
  22 C22           -1.3908     6.1813     0.0476 C.3     
  23 C23           -1.2163     7.7013     0.0536 C.3     
  24 O24            1.0936     3.3633     0.0092 O.3     
  25 C25           -0.1905     3.9901     0.0249 C.3     
  26 C26           12.6287     1.6157    -1.5521 C.3     
  27 C27           12.1353     1.6544    -0.1043 C.3     
  28 H28            3.2223    -0.6254    -0.0317 H       
  29 H29            3.6921     2.6986    -0.9082 H       
  30 H30            3.7085     2.6891     0.8716 H       
  31 H31            6.9268    -0.2807    -0.0631 H       
  32 H32            5.3109     3.6806    -0.0339 H       
  33 H33            9.8582     0.0633     0.8038 H       
  34 H34            9.8408     0.0724    -0.9833 H       
  35 H35            0.5272     5.8170    -0.8629 H       
  36 H36            0.5446     5.8080     0.9169 H       
  37 H37           -1.9514     5.8834    -0.8385 H       
  38 H38           -1.9341     5.8744     0.9414 H       
  39 H39           -0.6558     7.9992     0.9397 H       
  40 H40           -0.6731     8.0081    -0.8402 H       
  41 H41           -2.1958     8.1794     0.0655 H       
  42 H42           -0.7337     3.6833     0.9187 H       
  43 H43           -0.7510     3.6922    -0.8612 H       
  44 H44           12.1807     0.7652    -2.0660 H       
  45 H45           12.3429     2.5378    -2.0581 H       
  46 H46           13.7142     1.5164    -1.5635 H       
  47 H47           12.5834     2.5048     0.4096 H       
  48 H48           12.4212     0.7323     0.4017 H       
@<TRIPOS>BOND
   1    1    2 ar
   2    1    6 ar
   3    2    3 ar
   4    2   19 1
   5    3    4 ar
   6    4    5 ar
   7    4   28 1
   8    5    6 ar
   9    5    7 1
  10    6   24 1
  11    7    8 1
  12    7   29 1
  13    7   30 1
  14    8    9 1
  15    9   10 ar
  16    9   14 ar
  17   10   11 ar
  18   10   31 1
  19   11   12 ar
  20   11   15 1
  21   12   13 ar
  22   12   17 1
  23   13   14 ar
  24   13   20 1
  25   14   32 1
  26   15   16 1
  27   15   33 1
  28   15   34 1
  29   16   17 am
  30   16   27 1
  31   17   18 2
  32   21   22 1
  33   21   25 1
  34   21   35 1
  35   21   36 1
  36   22   23 1
  37   22   37 1
  38   22   38 1
  39   23   39 1
  40   23   40 1
  41   23   41 1
  42   24   25 1
  43   25   42 1
  44   25   43 1
  45   26   27 1
  46   26   44 1
  47   26   45 1
  48   26   46 1
  49   27   47 1
  50   27   48 1

#	End of record

