#	Name: ASD01720022
#	Creating user name:	WinNT
#	Creation time:	15. 06. 2019 19:23

#	Modifying user name:	WinNT
#	Modification time:	15. 06. 2019 19:23

#	Program:	/corina/corina34_cracker 3.40 0067  02.08.2006

@<TRIPOS>MOLECULE
ASD01720022
  48   50    0    0    0
SMALL
NO_CHARGES


@<TRIPOS>ATOM
   1 P1            -0.0198     1.6058     0.0109 P.3     
   2 O2             0.0021    -0.0041     0.0020 O.3     
   3 O3             0.1298     4.2215    -2.6028 O.3     
   4 O4             1.4907     2.1630    -0.0006 O.3     
   5 O5            -0.7984     2.1391    -1.2935 O.3     
   6 P6            -1.1580     3.6022    -1.8611 P.3     
   7 O7            -1.5523     4.4833    -0.7392 O.2     
   8 O8            -2.3763     3.4875    -2.9073 O.3     
   9 N9            -0.7469     2.1068     1.2890 N.2     
  10 O10            0.7645    -2.5123     0.2009 O.3     
  11 C11            1.3712    -3.6708     0.7769 C.3     
  12 C12            1.3595    -4.8125    -0.2416 C.3     
  13 C13            1.8965    -6.1111     0.3999 C.3     
  14 O14            0.8156    -6.9505     0.8113 O.3     
  15 C15            2.7035    -6.7838    -0.7330 C.3     
  16 O16            2.1456    -8.0591    -1.0560 O.3     
  17 C17            2.5586    -5.8120    -1.9251 C.3     
  18 O18            2.2735    -4.5302    -1.3237 O.3     
  19 N19            3.8078    -5.7508    -2.6880 N.pl3   
  20 C20            4.8008    -4.8292    -2.5370 C.2     
  21 N21            5.7644    -5.0723    -3.3773 N.2     
  22 C22            5.4518    -6.1622    -4.1187 C.ar    
  23 C23            6.0898    -6.8719    -5.1505 C.ar    
  24 N24            7.3311    -6.4776    -5.6185 N.pl3   
  25 N25            5.4737    -7.9304    -5.6659 N.ar    
  26 C26            4.2893    -8.3142    -5.2252 C.ar    
  27 N27            3.6545    -7.6804    -4.2620 N.ar    
  28 C28            4.1955    -6.6141    -3.6813 C.ar    
  29 P29            0.6058    -1.1199     0.9933 P.3     
  30 O30            1.9301    -0.6783     1.4850 O.2     
  31 O31           -0.3897    -1.3234     2.2421 O.3     
  32 H32            0.4443     3.6948    -3.3503 H       
  33 H33            2.0052     1.8889    -0.7720 H       
  34 H34           -2.6469     4.3332    -3.2902 H       
  35 H35           -1.6708     1.8590     1.4500 H       
  36 H36            2.4002    -3.4421     1.0545 H       
  37 H37            0.8134    -3.9699     1.6643 H       
  38 H38            0.3511    -4.9676    -0.6251 H       
  39 H39            2.5428    -5.8799     1.2467 H       
  40 H40            1.0960    -7.7802     1.2211 H       
  41 H41            3.7502    -6.8872    -0.4469 H       
  42 H42            2.1557    -8.6898    -0.3231 H       
  43 H43            1.7348    -6.1209    -2.5685 H       
  44 H44            4.7894    -4.0169    -1.8254 H       
  45 H45            7.7709    -5.7033    -5.2340 H       
  46 H46            7.7613    -6.9756    -6.3311 H       
  47 H47            3.8240    -9.1803    -5.6722 H       
  48 H48           -1.2782    -1.6132     1.9936 H       
@<TRIPOS>BOND
   1    1    2 1
   2    1    4 1
   3    1    5 1
   4    1    9 2
   5    2   29 1
   6    3    6 1
   7    3   32 1
   8    4   33 1
   9    5    6 1
  10    6    7 2
  11    6    8 1
  12    8   34 1
  13    9   35 1
  14   10   11 1
  15   10   29 1
  16   11   12 1
  17   11   36 1
  18   11   37 1
  19   12   13 1
  20   12   18 1
  21   12   38 1
  22   13   14 1
  23   13   15 1
  24   13   39 1
  25   14   40 1
  26   15   16 1
  27   15   17 1
  28   15   41 1
  29   16   42 1
  30   17   18 1
  31   17   19 1
  32   17   43 1
  33   19   20 1
  34   19   28 1
  35   20   21 2
  36   20   44 1
  37   21   22 1
  38   22   23 ar
  39   22   28 ar
  40   23   24 1
  41   23   25 ar
  42   24   45 1
  43   24   46 1
  44   25   26 ar
  45   26   27 ar
  46   26   47 1
  47   27   28 ar
  48   29   30 2
  49   29   31 1
  50   31   48 1

#	End of record

