#	Name: ASD01885785
#	Creating user name:	WinNT
#	Creation time:	15. 06. 2019 19:50

#	Modifying user name:	WinNT
#	Modification time:	15. 06. 2019 19:50

#	Program:	/corina/corina34_cracker 3.40 0067  02.08.2006

@<TRIPOS>MOLECULE
ASD01885785
  58   60    0    0    0
SMALL
NO_CHARGES


@<TRIPOS>ATOM
   1 C1            -0.0160     1.3294     0.0094 C.ar    
   2 C2            -1.2520     2.0240     0.0189 C.ar    
   3 C3            -2.4596     1.2809     0.0205 C.ar    
   4 C4            -2.3700    -0.1047     0.0125 C.ar    
   5 C5            -1.1108    -0.7138     0.0033 C.ar    
   6 N6             0.0021    -0.0041     0.0020 N.ar    
   7 C7             1.1364     3.4285     0.0097 C.ar    
   8 C8            -0.0805     4.1065     0.0258 C.ar    
   9 C9            -1.2606     3.4246     0.0271 C.ar    
  10 C10           -3.7749     1.9611     0.0308 C.2     
  11 C11           -1.0240    -2.1941    -0.0047 C.2     
  12 C12            2.4227     4.2136     0.0097 C.3     
  13 N13            2.8503     4.4530     1.3945 N.3     
  14 C14            1.1821     2.0685     0.0019 C.ar    
  15 N15            0.1806    -2.7985    -0.0130 N.am    
  16 O16           -2.0389    -2.8621    -0.0037 O.2     
  17 C17            4.2124     5.0045     1.4375 C.3     
  18 C18            4.5943     5.2940     2.8916 C.3     
  19 O19            4.4717     4.0937     3.6594 O.3     
  20 C20            3.1576     3.5297     3.6402 C.3     
  21 C21            2.7611     3.2223     2.1937 C.3     
  22 C22            6.0395     5.7928     2.9506 C.3     
  23 F23            6.1597     6.9642     2.1953 F       
  24 F24            6.3877     6.0571     4.2796 F       
  25 F25            6.8925     4.8132     2.4310 F       
  26 C26           -4.1757     2.9887     0.9094 C.2     
  27 N27           -5.3995     3.3279     0.6043 N.2     
  28 N28           -5.8265     2.5392    -0.4706 N.pl3   
  29 C29           -4.8207     1.7119    -0.8135 C.2     
  30 C30           -7.1405     2.6056    -1.1149 C.3     
  31 F31           -7.0988     3.5288    -2.1652 F       
  32 H32           -3.2660    -0.7077     0.0137 H       
  33 H33           -0.0889     5.1864     0.0378 H       
  34 H34           -2.1976     3.9616     0.0341 H       
  35 H35            3.1929     3.6491    -0.5159 H       
  36 H36            2.2657     5.1683    -0.4923 H       
  37 H37            2.1338     1.5582    -0.0097 H       
  38 H38            0.9908    -2.2651    -0.0139 H       
  39 H39            0.2373    -3.7668    -0.0182 H       
  40 H40            4.9109     4.2825     1.0146 H       
  41 H41            4.2493     5.9286     0.8606 H       
  42 H42            3.9288     6.0556     3.2980 H       
  43 H43            3.1480     2.6090     4.2236 H       
  44 H44            2.4503     4.2400     4.0683 H       
  45 H45            1.7386     2.8455     2.1688 H       
  46 H46            3.4364     2.4718     1.7828 H       
  47 H47           -3.5757     3.4197     1.6972 H       
  48 H48           -4.8393     0.9798    -1.6073 H       
  49 H49           -7.4038     1.6226    -1.5054 H       
  50 H50           -7.8875     2.9188    -0.3854 H       
  51 C51           12.8944    13.8713    10.1848 C.3     
  52 C52           12.9151    12.3415    10.1764 C.3     
  53 H53           13.9170    14.2486    10.1770 H       
  54 H54           12.3672    14.2324     9.3017 H       
  55 H55           12.3842    14.2228    11.0816 H       
  56 H56           13.4423    11.9804    11.0594 H       
  57 H57           11.8925    11.9642    10.1841 H       
  58 H58           13.4253    11.9900     9.2796 H       
@<TRIPOS>BOND
   1    1    6 ar
   2    1   14 ar
   3    1    2 ar
   4    2    3 ar
   5    2    9 ar
   6    3   10 1
   7    3    4 ar
   8    4    5 ar
   9    4   32 1
  10    5   11 1
  11    5    6 ar
  12    7   12 1
  13    7    8 ar
  14    7   14 ar
  15    8    9 ar
  16    8   33 1
  17    9   34 1
  18   10   26 1
  19   10   29 2
  20   11   15 am
  21   11   16 2
  22   12   13 1
  23   12   35 1
  24   12   36 1
  25   13   17 1
  26   13   21 1
  27   14   37 1
  28   15   38 1
  29   15   39 1
  30   17   18 1
  31   17   40 1
  32   17   41 1
  33   18   19 1
  34   18   22 1
  35   18   42 1
  36   19   20 1
  37   20   21 1
  38   20   43 1
  39   20   44 1
  40   21   45 1
  41   21   46 1
  42   22   23 1
  43   22   24 1
  44   22   25 1
  45   26   27 2
  46   26   47 1
  47   27   28 1
  48   28   29 1
  49   28   30 1
  50   29   48 1
  51   30   31 1
  52   30   49 1
  53   30   50 1
  54   51   52 1
  55   51   53 1
  56   51   54 1
  57   51   55 1
  58   52   56 1
  59   52   57 1
  60   52   58 1

#	End of record

