#	Name: ASD03080032
#	Creating user name:	WinNT
#	Creation time:	15. 06. 2019 20:26

#	Modifying user name:	WinNT
#	Modification time:	15. 06. 2019 20:26

#	Program:	/corina/corina34_cracker 3.40 0067  02.08.2006

@<TRIPOS>MOLECULE
ASD03080032
  27   29    0    0    0
SMALL
NO_CHARGES


@<TRIPOS>ATOM
   1 C1             0.0021    -0.0041     0.0020 C.1     
   2 C2            -0.0173     1.4278     0.0099 C.ar    
   3 C3             1.1821     2.1442     0.0023 C.ar    
   4 C4             1.1645     3.5267     0.0104 C.ar    
   5 C5            -0.0391     4.2082     0.0260 C.ar    
   6 C6            -1.2440     3.5027     0.0338 C.ar    
   7 C7            -1.2328     2.1096     0.0194 C.ar    
   8 N8             0.0175    -1.1399    -0.0042 N.1     
   9 O9            -3.7570     3.6904     0.0609 O.3     
  10 N10           -4.5957     4.5662     0.0748 N.2     
  11 C11           -4.0240     5.7431     0.0759 C.2     
  12 N12           -2.6897     5.5427     0.0609 N.2     
  13 C13           -2.5296     4.2329     0.0514 C.2     
  14 C14           -3.9839     8.2419     0.0899 C.ar    
  15 C15           -4.7157     7.0565     0.0909 C.ar    
  16 C16           -6.1111     7.1237     0.1058 C.ar    
  17 C17           -6.7083     8.3729     0.1190 C.ar    
  18 C18           -5.9120     9.5032     0.1170 C.ar    
  19 N19           -4.5963     9.4080     0.1024 N.ar    
  20 F20            2.3272     4.2146     0.0034 F       
  21 H21            2.1247     1.6171    -0.0096 H       
  22 H22           -0.0469     5.2881     0.0327 H       
  23 H23           -2.1625     1.5600     0.0204 H       
  24 H24           -2.9046     8.2044     0.0830 H       
  25 H25           -6.7088     6.2242     0.1067 H       
  26 H26           -7.7845     8.4633     0.1303 H       
  27 H27           -6.3743    10.4792     0.1273 H       
@<TRIPOS>BOND
   1    1    2 1
   2    1    8 3
   3    2    3 ar
   4    2    7 ar
   5    3    4 ar
   6    3   21 1
   7    4    5 ar
   8    4   20 1
   9    5    6 ar
  10    5   22 1
  11    6    7 ar
  12    6   13 1
  13    7   23 1
  14    9   10 1
  15    9   13 1
  16   10   11 2
  17   11   12 1
  18   11   15 1
  19   12   13 2
  20   14   15 ar
  21   14   19 ar
  22   14   24 1
  23   15   16 ar
  24   16   17 ar
  25   16   25 1
  26   17   18 ar
  27   17   26 1
  28   18   19 ar
  29   18   27 1

#	End of record

