#	Name: ASD03900040
#	Creating user name:	WinNT
#	Creation time:	15. 06. 2019 20:47

#	Modifying user name:	WinNT
#	Modification time:	15. 06. 2019 20:47

#	Program:	/corina/corina34_cracker 3.40 0067  02.08.2006

@<TRIPOS>MOLECULE
ASD03900040
  53   55    0    0    0
SMALL
NO_CHARGES


@<TRIPOS>ATOM
   1 C1            -0.3611     1.2263    -0.3026 C.ar    
   2 C2            -0.1928    -0.1260    -0.0760 C.ar    
   3 C3             1.0446    -0.7117    -0.2693 C.ar    
   4 C4             2.1164     0.0539    -0.6898 C.ar    
   5 C5             1.9534     1.4067    -0.9173 C.ar    
   6 C6             0.7127     1.9967    -0.7245 C.ar    
   7 C7             1.2256    -2.1871    -0.0209 C.3     
   8 C8             2.6602    -2.5681    -0.2810 C.ar    
   9 C9             0.8736    -2.5024     1.4101 C.ar    
  10 C10            0.8154    -3.8175     1.8328 C.ar    
  11 C11            0.6152    -1.4758     2.2995 C.ar    
  12 C12            0.2928    -1.7622     3.6120 C.ar    
  13 C13            0.2285    -3.0811     4.0373 C.ar    
  14 C14            0.4930    -4.1092     3.1441 C.ar    
  15 C15            3.6613    -2.0928     0.5458 C.ar    
  16 C16            2.9725    -3.3969    -1.3427 C.ar    
  17 C17            4.2868    -3.7480    -1.5830 C.ar    
  18 C18            5.2937    -3.2682    -0.7580 C.ar    
  19 C19            4.9772    -2.4406     0.3095 C.ar    
  20 O20            0.5497     3.3272    -0.9481 O.3     
  21 O21            6.5874    -3.6125    -0.9921 O.3     
  22 C22            0.3100    -2.9780    -0.9574 C.3     
  23 C23           -0.7553     3.8667    -0.7292 C.3     
  24 C24           -0.7443     5.3443    -1.0256 C.2     
  25 O25           -0.0880    -3.3654     5.3280 O.3     
  26 O26           -1.8684     6.0648    -0.8878 O.3     
  27 O27            0.2764     5.8803    -1.3871 O.2     
  28 C28            7.5713    -3.0814    -0.1022 C.3     
  29 C29            8.9366    -3.5677    -0.5149 C.2     
  30 O30           10.0212    -3.1934     0.1818 O.3     
  31 O31            9.0550    -4.2945    -1.4728 O.2     
  32 H32           -1.3290     1.6826    -0.1558 H       
  33 H33           -1.0284    -0.7261     0.2528 H       
  34 H34            3.0820    -0.4060    -0.8401 H       
  35 H35            2.7911     2.0044    -1.2451 H       
  36 H36            1.0217    -4.6175     1.1372 H       
  37 H37            0.6657    -0.4492     1.9681 H       
  38 H38            0.0914    -0.9599     4.3064 H       
  39 H39            0.4436    -5.1368     3.4728 H       
  40 H40            3.4144    -1.4488     1.3769 H       
  41 H41            2.1883    -3.7705    -1.9845 H       
  42 H42            4.5302    -4.3958    -2.4122 H       
  43 H43            5.7592    -2.0658     0.9531 H       
  44 H44            0.5645    -2.7500    -1.9924 H       
  45 H45            0.4408    -4.0451    -0.7777 H       
  46 H46           -0.7277    -2.7024    -0.7692 H       
  47 H47           -1.4689     3.3697    -1.3864 H       
  48 H48           -1.0452     3.7066     0.3093 H       
  49 H49           -1.0357    -3.4756     5.4854 H       
  50 H50           -1.8121     7.0089    -1.0895 H       
  51 H51            7.5463    -1.9924    -0.1411 H       
  52 H52            7.3591    -3.4136     0.9140 H       
  53 H53           10.8754    -3.5308    -0.1210 H       
@<TRIPOS>BOND
   1    1    2 ar
   2    1    6 ar
   3    1   32 1
   4    2    3 ar
   5    2   33 1
   6    3    4 ar
   7    3    7 1
   8    4    5 ar
   9    4   34 1
  10    5    6 ar
  11    5   35 1
  12    6   20 1
  13    7    8 1
  14    7    9 1
  15    7   22 1
  16    8   15 ar
  17    8   16 ar
  18    9   10 ar
  19    9   11 ar
  20   10   14 ar
  21   10   36 1
  22   11   12 ar
  23   11   37 1
  24   12   13 ar
  25   12   38 1
  26   13   14 ar
  27   13   25 1
  28   14   39 1
  29   15   19 ar
  30   15   40 1
  31   16   17 ar
  32   16   41 1
  33   17   18 ar
  34   17   42 1
  35   18   19 ar
  36   18   21 1
  37   19   43 1
  38   20   23 1
  39   21   28 1
  40   22   44 1
  41   22   45 1
  42   22   46 1
  43   23   24 1
  44   23   47 1
  45   23   48 1
  46   24   26 1
  47   24   27 2
  48   25   49 1
  49   26   50 1
  50   28   29 1
  51   28   51 1
  52   28   52 1
  53   29   30 1
  54   29   31 2
  55   30   53 1

#	End of record

