#	Name: ASD01881453
#	Creating user name:	WinNT
#	Creation time:	15. 06. 2019 19:42

#	Modifying user name:	WinNT
#	Modification time:	15. 06. 2019 19:42

#	Program:	/corina/corina34_cracker 3.40 0067  02.08.2006

@<TRIPOS>MOLECULE
ASD01881453
  57   62    0    0    0
SMALL
NO_CHARGES


@<TRIPOS>ATOM
   1 C1             0.0938     1.4172    -0.0855 C.3     
   2 C2             5.1289     4.1810     3.6323 C.3     
   3 C3            -0.4331     2.5858    -4.0799 C.ar    
   4 C4             0.4483     2.3923    -3.0367 C.ar    
   5 C5            -1.1079     3.7919    -4.2063 C.ar    
   6 C6            -0.8979     4.8098    -3.2817 C.ar    
   7 C7            -0.0173     4.6221    -2.2358 C.ar    
   8 C8             0.6619     3.4099    -2.1074 C.ar    
   9 C9             1.6077     3.2043    -0.9859 C.2     
  10 C10            1.3447     2.2548    -0.0163 C.2     
  11 C11            2.7930     3.9745    -0.8997 C.2     
  12 C12            3.6515     3.7855     0.1198 C.2     
  13 N13            3.3971     2.8539     1.0848 N.pl3   
  14 C14            2.2610     2.0825     1.0350 C.2     
  15 C15            4.0673     2.4562     2.2015 C.2     
  16 N16            3.3605     1.5143     2.7709 N.2     
  17 N17            2.2927     1.2841     2.0911 N.2     
  18 C18            5.3839     3.0015     2.6917 C.3     
  19 F19           -1.5557     5.9831    -3.4081 F       
  20 O20           -1.9755     3.9789    -5.2353 O.3     
  21 C21           -1.5077     4.5734    -6.3641 C.ar    
  22 C22           -2.3295     4.7260    -7.4714 C.ar    
  23 C23           -0.1990     5.0431    -6.4241 C.ar    
  24 N24           -1.8798     5.3021    -8.5686 N.ar    
  25 C25           -0.6441     5.7529    -8.6599 C.ar    
  26 C26            0.2324     5.6419    -7.5964 C.ar    
  27 C27            6.3401     4.8019     4.3312 C.3     
  28 C28            5.6419     5.5552     3.1972 C.3     
  29 C29           -0.1827     6.4033    -9.9386 C.3     
  30 C30           -3.7508     4.2276    -7.4195 C.3     
  31 C31            0.2641    -0.1003    -0.1807 C.3     
  32 C32           -0.2324     0.5337     1.1203 C.3     
  33 H33           -0.7424     1.8645    -0.6229 H       
  34 H34            4.1912     4.1460     4.1868 H       
  35 H35           -0.5950     1.7991    -4.8019 H       
  36 H36            0.9724     1.4530    -2.9394 H       
  37 H37            0.1463     5.4123    -1.5180 H       
  38 H38            3.0091     4.7159    -1.6547 H       
  39 H39            4.5526     4.3783     0.1752 H       
  40 H40            5.9776     3.3368     1.8413 H       
  41 H41            5.9241     2.2205     3.2266 H       
  42 H42            0.4639     4.9436    -5.5773 H       
  43 H43            1.2428     6.0142    -7.6800 H       
  44 H44            6.1991     5.1756     5.3454 H       
  45 H45            7.3186     4.3700     4.1210 H       
  46 H46            6.1611     5.6190     2.2409 H       
  47 H47            5.0416     6.4246     3.4654 H       
  48 H48           -0.3789     7.4745    -9.8928 H       
  49 H49            0.8865     6.2349   -10.0667 H       
  50 H50           -0.7221     5.9709   -10.7814 H       
  51 H51           -4.4011     5.0217    -7.0527 H       
  52 H52           -4.0683     3.9306    -8.4191 H       
  53 H53           -3.8108     3.3700    -6.7494 H       
  54 H54           -0.4603    -0.6514    -0.7805 H       
  55 H55            1.2809    -0.4928    -0.1933 H       
  56 H56            0.4578     0.5582     1.9636 H       
  57 H57           -1.2833     0.3997     1.3764 H       
@<TRIPOS>BOND
   1    1   31 1
   2    1   10 1
   3    1   32 1
   4    1   33 1
   5    2   27 1
   6    2   18 1
   7    2   28 1
   8    2   34 1
   9    3    4 ar
  10    3    5 ar
  11    3   35 1
  12    4    8 ar
  13    4   36 1
  14    5    6 ar
  15    5   20 1
  16    6    7 ar
  17    6   19 1
  18    7    8 ar
  19    7   37 1
  20    8    9 1
  21    9   10 2
  22    9   11 1
  23   10   14 1
  24   11   12 2
  25   11   38 1
  26   12   13 1
  27   12   39 1
  28   13   14 1
  29   13   15 1
  30   14   17 2
  31   15   16 2
  32   15   18 1
  33   16   17 1
  34   18   40 1
  35   18   41 1
  36   20   21 1
  37   21   22 ar
  38   21   23 ar
  39   22   24 ar
  40   22   30 1
  41   23   26 ar
  42   23   42 1
  43   24   25 ar
  44   25   26 ar
  45   25   29 1
  46   26   43 1
  47   27   28 1
  48   27   44 1
  49   27   45 1
  50   28   46 1
  51   28   47 1
  52   29   48 1
  53   29   49 1
  54   29   50 1
  55   30   51 1
  56   30   52 1
  57   30   53 1
  58   31   32 1
  59   31   54 1
  60   31   55 1
  61   32   56 1
  62   32   57 1

#	End of record

