#	Name: ASD06020031
#	Creating user name:	WinNT
#	Creation time:	15. 06. 2019 21:04

#	Modifying user name:	WinNT
#	Modification time:	15. 06. 2019 21:04

#	Program:	/corina/corina34_cracker 3.40 0067  02.08.2006

@<TRIPOS>MOLECULE
ASD06020031
  37   40    0    0    0
SMALL
NO_CHARGES


@<TRIPOS>ATOM
   1 C1            -0.0723     1.2907     0.0310 C.ar    
   2 C2             1.1258     2.0047     0.0307 C.ar    
   3 N3            -0.0536    -0.0415     0.0095 N.ar    
   4 N4             2.2777     1.3603     0.0091 N.ar    
   5 C5             2.2953     0.0326    -0.0122 C.ar    
   6 C6             1.0940    -0.6829    -0.0119 C.ar    
   7 C7            -1.3625     2.0116     0.0613 C.2     
   8 O8            -1.3793     3.2268     0.0859 O.2     
   9 N9            -2.5201     1.3215     0.0616 N.am    
  10 N10            3.5042    -0.6437    -0.0349 N.pl3   
  11 C11            4.6964     0.0655    -0.1475 C.ar    
  12 C12            5.9185    -0.6091    -0.0572 C.ar    
  13 C13            7.1139     0.1100    -0.1713 C.ar    
  14 C14            7.0077     1.5093    -0.3759 C.ar    
  15 C15            5.7785     2.0845    -0.4515 C.ar    
  16 N16            4.6679     1.3723    -0.3446 N.ar    
  17 S17            6.3142    -2.3063     0.1890 S.3     
  18 C18            8.0303    -1.9259     0.1209 C.2     
  19 N19            8.1995    -0.6575    -0.0665 N.2     
  20 C20            9.1215    -2.9135     0.2587 C.ar    
  21 C21           10.4540    -2.5011     0.1886 C.ar    
  22 C22           11.4683    -3.4292     0.3187 C.ar    
  23 C23           11.1670    -4.7646     0.5177 C.ar    
  24 C24            9.8496    -5.1803     0.5882 C.ar    
  25 C25            8.8249    -4.2625     0.4655 C.ar    
  26 Cl26           7.1723    -4.7854     0.5610 Cl      
  27 Cl27          10.8343    -0.8259    -0.0622 Cl      
  28 H28            1.1111     3.0845     0.0477 H       
  29 H29            1.1088    -1.7626    -0.0293 H       
  30 H30           -2.5067     0.3518     0.0419 H       
  31 H31           -3.3667     1.7945     0.0814 H       
  32 H32            3.5197    -1.6116     0.0278 H       
  33 H33            7.8976     2.1139    -0.4707 H       
  34 H34            5.7060     3.1507    -0.6075 H       
  35 H35           12.4991    -3.1118     0.2647 H       
  36 H36           11.9643    -5.4861     0.6180 H       
  37 H37            9.6218    -6.2245     0.7433 H       
@<TRIPOS>BOND
   1    1    2 ar
   2    1    3 ar
   3    1    7 1
   4    2    4 ar
   5    2   28 1
   6    3    6 ar
   7    4    5 ar
   8    5    6 ar
   9    5   10 1
  10    6   29 1
  11    7    8 2
  12    7    9 am
  13    9   30 1
  14    9   31 1
  15   10   11 1
  16   10   32 1
  17   11   12 ar
  18   11   16 ar
  19   12   13 ar
  20   12   17 1
  21   13   14 ar
  22   13   19 1
  23   14   15 ar
  24   14   33 1
  25   15   16 ar
  26   15   34 1
  27   17   18 1
  28   18   19 2
  29   18   20 1
  30   20   21 ar
  31   20   25 ar
  32   21   22 ar
  33   21   27 1
  34   22   23 ar
  35   22   35 1
  36   23   24 ar
  37   23   36 1
  38   24   25 ar
  39   24   37 1
  40   25   26 1

#	End of record

