#	Name: ASD04170044
#	Creating user name:	WinNT
#	Creation time:	15. 06. 2019 20:48

#	Modifying user name:	WinNT
#	Modification time:	15. 06. 2019 20:48

#	Program:	/corina/corina34_cracker 3.40 0067  02.08.2006

@<TRIPOS>MOLECULE
ASD04170044
  37   39    0    0    0
SMALL
NO_CHARGES


@<TRIPOS>ATOM
   1 C1            -1.2596    -2.9777     4.0545 C.3     
   2 O2            -0.8273    -2.9313     2.6932 O.3     
   3 C3             0.2028    -2.0944     2.4012 C.ar    
   4 C4             0.7854    -1.3335     3.4041 C.ar    
   5 C5             1.8325    -0.4833     3.1046 C.ar    
   6 C6             2.2997    -0.3905     1.8068 C.ar    
   7 C7             1.7202    -1.1477     0.8051 C.ar    
   8 C8             0.6773    -2.0037     1.1005 C.ar    
   9 C9             0.0467    -2.8289     0.0085 C.3     
  10 O10            0.3405    -4.2109     0.2224 O.3     
  11 C11           -1.4693    -2.6195     0.0179 C.3     
  12 N12           -1.9075    -2.0692    -1.2669 N.4     
  13 C13           -1.5991    -2.9972    -2.3575 C.3     
  14 C14           -0.0874    -3.2184    -2.4458 C.3     
  15 C15            0.6013    -2.3901    -1.3531 C.3     
  16 C16            0.2400    -0.9140    -1.5652 C.3     
  17 C17           -1.2861    -0.7649    -1.5080 C.3     
  18 H18           -1.5907    -1.9866     4.3645 H       
  19 H19           -2.0854    -3.6829     4.1496 H       
  20 H20           -0.4326    -3.2992     4.6876 H       
  21 H21            0.4206    -1.4054     4.4181 H       
  22 H22            2.2862     0.1096     3.8850 H       
  23 H23            3.1182     0.2746     1.5748 H       
  24 H24            2.0867    -1.0732    -0.2080 H       
  25 H25            0.0143    -4.5567     1.0645 H       
  26 H26           -1.9653    -3.5747     0.1904 H       
  27 H27           -1.7337    -1.9270     0.8171 H       
  28 H28           -2.9073    -1.9371    -1.2333 H       
  29 H29           -2.0939    -3.9506    -2.1720 H       
  30 H30           -1.9594    -2.5818    -3.2986 H       
  31 H31            0.1365    -4.2746    -2.2965 H       
  32 H32            0.2715    -2.9017    -3.4251 H       
  33 H33            1.6805    -2.5388    -1.3902 H       
  34 H34            0.6986    -0.3096    -0.7827 H       
  35 H35            0.5998    -0.5864    -2.5406 H       
  36 H36           -1.6455    -0.3589    -2.4536 H       
  37 H37           -1.5529    -0.0843    -0.6995 H       
@<TRIPOS>BOND
   1    1    2 1
   2    1   18 1
   3    1   19 1
   4    1   20 1
   5    2    3 1
   6    3    4 ar
   7    3    8 ar
   8    4    5 ar
   9    4   21 1
  10    5    6 ar
  11    5   22 1
  12    6    7 ar
  13    6   23 1
  14    7    8 ar
  15    7   24 1
  16    8    9 1
  17    9   10 1
  18    9   11 1
  19    9   15 1
  20   10   25 1
  21   11   12 1
  22   11   26 1
  23   11   27 1
  24   12   13 1
  25   12   17 1
  26   12   28 1
  27   13   14 1
  28   13   29 1
  29   13   30 1
  30   14   15 1
  31   14   31 1
  32   14   32 1
  33   15   16 1
  34   15   33 1
  35   16   17 1
  36   16   34 1
  37   16   35 1
  38   17   36 1
  39   17   37 1

#	End of record

