#	Name: ASD07301432
#	Creating user name:	WinNT
#	Creation time:	15. 06. 2019 21:11

#	Modifying user name:	WinNT
#	Modification time:	15. 06. 2019 21:11

#	Program:	/corina/corina34_cracker 3.40 0067  02.08.2006

@<TRIPOS>MOLECULE
ASD07301432
  15   16    0    0    0
SMALL
NO_CHARGES


@<TRIPOS>ATOM
   1 C1            -0.0168     1.3904     0.0097 C.ar    
   2 C2             0.0021    -0.0041     0.0020 C.ar    
   3 C3             1.2468    -0.6627    -0.0134 C.ar    
   4 C4             2.4053     0.1034    -0.0207 C.ar    
   5 C5             2.2936     1.4782    -0.0126 C.ar    
   6 N6             1.1114     2.0699     0.0026 N.ar    
   7 C7            -0.3916    -2.1483    -0.0051 C.2     
   8 N8            -0.9562    -0.9652     0.0064 N.2     
   9 N9             0.9694    -2.0133    -0.0176 N.pl3   
  10 S10           -1.2569    -3.6832    -0.0050 S.3     
  11 H11           -0.9607     1.9153     0.0170 H       
  12 H12            3.3764    -0.3690    -0.0322 H       
  13 H13            3.1886     2.0826    -0.0179 H       
  14 H14            1.6187    -2.7338    -0.0280 H       
  15 H15           -1.3896    -3.8895    -1.3935 H       
@<TRIPOS>BOND
   1    1    2 ar
   2    1    6 ar
   3    1   11 1
   4    2    3 ar
   5    2    8 1
   6    3    4 ar
   7    3    9 1
   8    4    5 ar
   9    4   12 1
  10    5    6 ar
  11    5   13 1
  12    7    8 2
  13    7    9 1
  14    7   10 1
  15    9   14 1
  16   10   15 1

#	End of record

