#	Name: ASD01913160
#	Creating user name:	WinNT
#	Creation time:	15. 06. 2019 20:01

#	Modifying user name:	WinNT
#	Modification time:	15. 06. 2019 20:01

#	Program:	/corina/corina34_cracker 3.40 0067  02.08.2006

@<TRIPOS>MOLECULE
ASD01913160
  51   53    0    0    0
SMALL
NO_CHARGES


@<TRIPOS>ATOM
   1 C1            -0.1495     0.9273     0.0082 C.ar    
   2 C2            -0.1101    -0.4482     0.1427 C.ar    
   3 C3             1.1040    -1.1072     0.1601 C.ar    
   4 C4             2.2842    -0.3876     0.0424 C.ar    
   5 C5             2.2420     0.9925    -0.0924 C.ar    
   6 C6             1.0254     1.6468    -0.1092 C.ar    
   7 O7             3.4798    -1.0335     0.0597 O.3     
   8 C8             4.6539    -0.2286    -0.0661 C.3     
   9 C9             5.8933    -1.1248    -0.0257 C.3     
  10 C10            7.1314    -0.2760    -0.1584 C.2     
  11 N11            8.3489    -0.8540    -0.1488 N.am    
  12 C12            9.5700    -0.0443    -0.2769 C.3     
  13 C13           10.5247    -0.4196     0.8615 C.3     
  14 N14           10.7397    -1.8728     0.8569 N.3     
  15 C15            9.4888    -2.5973     1.1181 C.3     
  16 C16            8.4919    -2.3106    -0.0036 C.3     
  17 O17            7.0323     0.9272    -0.2740 O.2     
  18 C18           11.7289    -2.2353     1.7740 C.ar    
  19 C19           11.4699    -2.1753     3.1374 C.ar    
  20 C20           12.4501    -2.5349     4.0414 C.ar    
  21 C21           13.6883    -2.9543     3.5906 C.ar    
  22 C22           13.9495    -3.0152     2.2340 C.ar    
  23 C23           12.9721    -2.6621     1.3245 C.ar    
  24 C24           13.2574    -2.7293    -0.1538 C.3     
  25 C25           10.1210    -1.7178     3.6296 C.3     
  26 H26           -1.0998     1.4402    -0.0097 H       
  27 H27           -1.0291    -1.0079     0.2346 H       
  28 H28            1.1343    -2.1816     0.2655 H       
  29 H29            3.1594     1.5550    -0.1838 H       
  30 H30            0.9919     2.7212    -0.2141 H       
  31 H31            4.6255     0.3097    -1.0135 H       
  32 H32            4.6948     0.4854     0.7564 H       
  33 H33            5.9216    -1.6631     0.9216 H       
  34 H34            5.8523    -1.8388    -0.8483 H       
  35 H35           10.0458    -0.2485    -1.2361 H       
  36 H36            9.3167     1.0137    -0.2086 H       
  37 H37           11.4780     0.0895     0.7195 H       
  38 H38           10.0899    -0.1192     1.8148 H       
  39 H39            9.6907    -3.6675     1.1623 H       
  40 H40            9.0684    -2.2666     2.0678 H       
  41 H41            7.5263    -2.7522     0.2429 H       
  42 H42            8.8619    -2.7312    -0.9387 H       
  43 H43           12.2495    -2.4881     5.1015 H       
  44 H44           14.4532    -3.2346     4.2996 H       
  45 H45           14.9176    -3.3433     1.8853 H       
  46 H46           12.9074    -3.6832    -0.5484 H       
  47 H47           12.7405    -1.9146    -0.6610 H       
  48 H48           14.3307    -2.6387    -0.3211 H       
  49 H49            9.4589    -2.5781     3.7270 H       
  50 H50           10.2332    -1.2340     4.5998 H       
  51 H51            9.6953    -1.0104     2.9179 H       
@<TRIPOS>BOND
   1    1    2 ar
   2    1    6 ar
   3    1   26 1
   4    2    3 ar
   5    2   27 1
   6    3    4 ar
   7    3   28 1
   8    4    5 ar
   9    4    7 1
  10    5    6 ar
  11    5   29 1
  12    6   30 1
  13    7    8 1
  14    8    9 1
  15    8   31 1
  16    8   32 1
  17    9   10 1
  18    9   33 1
  19    9   34 1
  20   10   11 am
  21   10   17 2
  22   11   12 1
  23   11   16 1
  24   12   13 1
  25   12   35 1
  26   12   36 1
  27   13   14 1
  28   13   37 1
  29   13   38 1
  30   14   15 1
  31   14   18 1
  32   15   16 1
  33   15   39 1
  34   15   40 1
  35   16   41 1
  36   16   42 1
  37   18   19 ar
  38   18   23 ar
  39   19   20 ar
  40   19   25 1
  41   20   21 ar
  42   20   43 1
  43   21   22 ar
  44   21   44 1
  45   22   23 ar
  46   22   45 1
  47   23   24 1
  48   24   46 1
  49   24   47 1
  50   24   48 1
  51   25   49 1
  52   25   50 1
  53   25   51 1

#	End of record

