#	Name: ASD05143285
#	Creating user name:	WinNT
#	Creation time:	15. 06. 2019 20:57

#	Modifying user name:	WinNT
#	Modification time:	15. 06. 2019 20:57

#	Program:	/corina/corina34_cracker 3.40 0067  02.08.2006

@<TRIPOS>MOLECULE
ASD05143285
  49   51    0    0    0
SMALL
NO_CHARGES


@<TRIPOS>ATOM
   1 C1             0.3308     1.2314     0.2621 C.2     
   2 N2             0.3299    -0.0345    -0.1051 N.2     
   3 S3            -1.3056    -0.4860    -0.1972 S.3     
   4 C4            -1.9068     1.0603     0.2657 C.2     
   5 N5            -0.8405     1.8039     0.4619 N.2     
   6 N6            -3.2294     1.4376     0.4067 N.pl3   
   7 C7            -3.5458     2.7118     0.8933 C.ar    
   8 C8            -4.8684     3.0392     1.1865 C.ar    
   9 C9            -5.1754     4.3007     1.6680 C.ar    
  10 C10           -4.1709     5.2328     1.8564 C.ar    
  11 C11           -2.8590     4.9091     1.5653 C.ar    
  12 C12           -2.5432     3.6498     1.0901 C.ar    
  13 C13            1.4230    -0.8239    -0.3606 C.ar    
  14 C14            1.6090    -2.0123     0.3478 C.ar    
  15 C15            2.3490    -0.4436    -1.3335 C.ar    
  16 C16            3.4460    -1.2396    -1.5870 C.ar    
  17 C17            3.6303    -2.4179    -0.8763 C.ar    
  18 C18            2.7087    -2.8026     0.0881 C.ar    
  19 C19            1.5961     1.9789     0.4489 C.ar    
  20 C20            1.6503     3.3443     0.1700 C.ar    
  21 C21            2.7363     1.3213     0.9097 C.ar    
  22 C22            3.9118     2.0231     1.0821 C.ar    
  23 C23            3.9606     3.3764     0.7992 C.ar    
  24 C24            2.8316     4.0353     0.3463 C.ar    
  25 O25           -5.8550     2.1221     1.0000 O.3     
  26 O26            4.7130    -3.1997    -1.1293 O.3     
  27 C27            4.8413    -4.3982    -0.3617 C.3     
  28 C28           -7.1870     2.5276     1.3218 C.3     
  29 H29           -3.9381     0.8196     0.1685 H       
  30 H30           -6.1994     4.5571     1.8961 H       
  31 H31           -4.4124     6.2163     2.2316 H       
  32 H32           -2.0781     5.6403     1.7137 H       
  33 H33           -1.5173     3.3995     0.8638 H       
  34 H34            0.8927    -2.3121     1.0985 H       
  35 H35            2.2061     0.4726    -1.8871 H       
  36 H36            4.1627    -0.9462    -2.3399 H       
  37 H37            2.8557    -3.7199     0.6389 H       
  38 H38            0.7695     3.8597    -0.1836 H       
  39 H39            2.6992     0.2650     1.1316 H       
  40 H40            4.7955     1.5150     1.4390 H       
  41 H41            4.8828     3.9216     0.9361 H       
  42 H42            2.8758     5.0918     0.1268 H       
  43 H43            4.9026    -4.1467     0.6971 H       
  44 H44            3.9736    -5.0349    -0.5343 H       
  45 H45            5.7456    -4.9272    -0.6625 H       
  46 H46           -7.2384     2.8029     2.3752 H       
  47 H47           -7.4641     3.3848     0.7083 H       
  48 H48           -7.8744     1.7043     1.1275 H       
  49 Br49          10.7456    11.2163     7.3752 Br      
@<TRIPOS>BOND
   1    1    2 2
   2    1   19 1
   3    1    5 1
   4    2    3 1
   5    2   13 1
   6    3    4 1
   7    4    5 2
   8    4    6 1
   9    6    7 1
  10    6   29 1
  11    7    8 ar
  12    7   12 ar
  13    8    9 ar
  14    8   25 1
  15    9   10 ar
  16    9   30 1
  17   10   11 ar
  18   10   31 1
  19   11   12 ar
  20   11   32 1
  21   12   33 1
  22   13   14 ar
  23   13   15 ar
  24   14   18 ar
  25   14   34 1
  26   15   16 ar
  27   15   35 1
  28   16   17 ar
  29   16   36 1
  30   17   18 ar
  31   17   26 1
  32   18   37 1
  33   19   20 ar
  34   19   21 ar
  35   20   24 ar
  36   20   38 1
  37   21   22 ar
  38   21   39 1
  39   22   23 ar
  40   22   40 1
  41   23   24 ar
  42   23   41 1
  43   24   42 1
  44   25   28 1
  45   26   27 1
  46   27   43 1
  47   27   44 1
  48   27   45 1
  49   28   46 1
  50   28   47 1
  51   28   48 1

#	End of record

