#	Name: ASD03331857
#	Creating user name:	WinNT
#	Creation time:	15. 06. 2019 20:40

#	Modifying user name:	WinNT
#	Modification time:	15. 06. 2019 20:40

#	Program:	/corina/corina34_cracker 3.40 0067  02.08.2006

@<TRIPOS>MOLECULE
ASD03331857
  49   52    0    0    0
SMALL
NO_CHARGES


@<TRIPOS>ATOM
   1 C1             8.1035     1.5085    -3.4637 C.ar    
   2 C2             8.5670     0.2453    -3.0851 C.ar    
   3 C3             8.0653    -0.3623    -1.9306 C.ar    
   4 C4             7.1169     0.2849    -1.1706 C.ar    
   5 C5             6.6576     1.5417    -1.5508 C.ar    
   6 C6             7.1550     2.1497    -2.6989 C.ar    
   7 N7             5.6961     2.1943    -0.7784 N.am    
   8 C8             5.7109     3.5383    -0.6782 C.2     
   9 N9             4.7216     4.1760    -0.0216 N.am    
  10 O10            6.6166     4.1754    -1.1801 O.2     
  11 C11            4.7915     5.5597     0.1762 C.ar    
  12 C12            3.6930     7.6857     0.3878 C.ar    
  13 C13            3.6281     6.3189     0.1927 C.ar    
  14 C14            6.0216     6.1725     0.3617 C.ar    
  15 C15            6.0861     7.5495     0.5586 C.ar    
  16 C16            4.9138     8.3041     0.5683 C.ar    
  17 C17            7.3983     8.2115     0.7581 C.ar    
  18 N18            8.5017     7.4765     0.7460 N.ar    
  19 C19            9.6911     8.0314     0.9200 C.ar    
  20 C20            9.7781     9.3967     1.1167 C.ar    
  21 C21            8.5986    10.1455     1.1245 C.ar    
  22 N22            7.4393     9.5241     0.9386 N.ar    
  23 N23            8.6379    11.5168     1.3186 N.3     
  24 C24            7.2815    12.0939     1.2880 C.3     
  25 C25            7.0714    12.8390     2.6230 C.3     
  26 C26            8.5212    13.1234     3.0964 C.3     
  27 C27            9.2624    11.8506     2.6164 C.3     
  28 C28            9.5531    -0.4248    -3.8782 C.1     
  29 N29           10.3353    -0.9565    -4.5075 N.1     
  30 H30            8.4922     1.9829    -4.3527 H       
  31 H31            8.4208    -1.3384    -1.6352 H       
  32 H32            6.7288    -0.1840    -0.2785 H       
  33 H33            6.7964     3.1257    -2.9908 H       
  34 H34            5.0170     1.6807    -0.3136 H       
  35 H35            3.9611     3.6759     0.3138 H       
  36 H36            2.7858     8.2716     0.3990 H       
  37 H37            2.6704     5.8398     0.0522 H       
  38 H38            6.9268     5.5836     0.3537 H       
  39 H39            4.9606     9.3723     0.7205 H       
  40 H40           10.5838     7.4237     0.9088 H       
  41 H41           10.7361     9.8739     1.2615 H       
  42 H42            7.1943    12.7924     0.4558 H       
  43 H43            6.5425    11.2990     1.1868 H       
  44 H44            6.5285    13.7705     2.4631 H       
  45 H45            6.5492    12.2055     3.3399 H       
  46 H46            8.9221    14.0143     2.6131 H       
  47 H47            8.5666    13.2158     4.1815 H       
  48 H48            9.1184    11.0369     3.3272 H       
  49 H49           10.3245    12.0570     2.4846 H       
@<TRIPOS>BOND
   1    1    2 ar
   2    1    6 ar
   3    1   30 1
   4    2    3 ar
   5    2   28 1
   6    3    4 ar
   7    3   31 1
   8    4    5 ar
   9    4   32 1
  10    5    6 ar
  11    5    7 1
  12    6   33 1
  13    7    8 am
  14    7   34 1
  15    8    9 am
  16    8   10 2
  17    9   11 1
  18    9   35 1
  19   11   14 ar
  20   11   13 ar
  21   12   13 ar
  22   12   16 ar
  23   12   36 1
  24   13   37 1
  25   14   15 ar
  26   14   38 1
  27   15   16 ar
  28   15   17 1
  29   16   39 1
  30   17   18 ar
  31   17   22 ar
  32   18   19 ar
  33   19   20 ar
  34   19   40 1
  35   20   21 ar
  36   20   41 1
  37   21   22 ar
  38   21   23 1
  39   23   24 1
  40   23   27 1
  41   24   25 1
  42   24   42 1
  43   24   43 1
  44   25   26 1
  45   25   44 1
  46   25   45 1
  47   26   27 1
  48   26   46 1
  49   26   47 1
  50   27   48 1
  51   27   49 1
  52   28   29 3

#	End of record

