#	Name: ASD01918175
#	Creating user name:	WinNT
#	Creation time:	15. 06. 2019 20:10

#	Modifying user name:	WinNT
#	Modification time:	15. 06. 2019 20:10

#	Program:	/corina/corina34_cracker 3.40 0067  02.08.2006

@<TRIPOS>MOLECULE
ASD01918175
  48   51    0    0    0
SMALL
NO_CHARGES


@<TRIPOS>ATOM
   1 C1             0.5219     2.0556    -0.5365 C.ar    
   2 C2             0.7973     0.7383    -0.9290 C.ar    
   3 C3             2.0856     0.3582    -1.1562 C.ar    
   4 C4             3.1344     1.2634    -1.0026 C.ar    
   5 C5             2.9005     2.5507    -0.6223 C.ar    
   6 C6             1.5839     2.9779    -0.3799 C.ar    
   7 N7             1.3259     4.2367    -0.0065 N.ar    
   8 C8             0.1014     4.6504     0.2230 C.ar    
   9 C9            -0.9936     3.8074     0.0916 C.ar    
  10 C10           -0.8035     2.4906    -0.2967 C.ar    
  11 S11           -2.6180     4.4101     0.4117 S.o2    
  12 O12           -3.2466     3.4462     1.2454 O.2     
  13 O13           -2.4748     5.7765     0.7748 O.2     
  14 C14           -3.4923     4.3908    -1.1180 C.ar    
  15 C15           -3.3327     5.4277    -2.0177 C.ar    
  16 C16           -4.3328     3.3359    -1.4197 C.ar    
  17 C17           -5.0200     3.3194    -2.6217 C.ar    
  18 C18           -4.8650     4.3600    -3.5213 C.ar    
  19 C19           -4.0190     5.4134    -3.2203 C.ar    
  20 N20           -1.8774     1.6258    -0.4423 N.3     
  21 C21           -3.2611     0.3183    -1.9839 C.3     
  22 C22           -3.2105    -0.8699    -1.0195 C.3     
  23 C23           -3.0482    -0.3494     0.4113 C.3     
  24 C24           -1.7797     0.5023     0.4983 C.3     
  25 C25           -1.9864     1.1506    -1.8275 C.3     
  26 C26           -4.5090    -1.6718    -1.1277 C.3     
  27 F27           -3.8631     6.4273    -4.0994 F       
  28 Cl28           4.7635     0.7425    -1.2997 Cl      
  29 F29           -5.8411     2.2879    -2.9165 F       
  30 H30           -0.0075     0.0284    -1.0504 H       
  31 H31            2.2969    -0.6569    -1.4586 H       
  32 H32            3.7238     3.2401    -0.5076 H       
  33 H33           -0.0586     5.6756     0.5229 H       
  34 H34           -2.6728     6.2497    -1.7825 H       
  35 H35           -4.4533     2.5240    -0.7178 H       
  36 H36           -5.4003     4.3478    -4.4592 H       
  37 H37           -3.3336    -0.0472    -3.0083 H       
  38 H38           -4.1294     0.9361    -1.7550 H       
  39 H39           -2.3645    -1.5089    -1.2728 H       
  40 H40           -3.9132     0.2579     0.6779 H       
  41 H41           -2.9687    -1.1919     1.0982 H       
  42 H42           -0.9137    -0.1092     0.2450 H       
  43 H43           -1.6689     0.8863     1.5124 H       
  44 H44           -2.0256     2.0054    -2.5027 H       
  45 H45           -1.1193     0.5361    -2.0699 H       
  46 H46           -4.6265    -2.0373    -2.1479 H       
  47 H47           -4.4721    -2.5174    -0.4409 H       
  48 H48           -5.3535    -1.0321    -0.8714 H       
@<TRIPOS>BOND
   1    1    2 ar
   2    1    6 ar
   3    1   10 ar
   4    2    3 ar
   5    2   30 1
   6    3    4 ar
   7    3   31 1
   8    4    5 ar
   9    4   28 1
  10    5    6 ar
  11    5   32 1
  12    6    7 ar
  13    7    8 ar
  14    8    9 ar
  15    8   33 1
  16    9   10 ar
  17    9   11 1
  18   10   20 1
  19   11   12 2
  20   11   13 2
  21   11   14 1
  22   14   16 ar
  23   14   15 ar
  24   15   19 ar
  25   15   34 1
  26   16   17 ar
  27   16   35 1
  28   17   18 ar
  29   17   29 1
  30   18   19 ar
  31   18   36 1
  32   19   27 1
  33   20   25 1
  34   20   24 1
  35   21   22 1
  36   21   25 1
  37   21   37 1
  38   21   38 1
  39   22   23 1
  40   22   26 1
  41   22   39 1
  42   23   24 1
  43   23   40 1
  44   23   41 1
  45   24   42 1
  46   24   43 1
  47   25   44 1
  48   25   45 1
  49   26   46 1
  50   26   47 1
  51   26   48 1

#	End of record

