#	Name: ASD05313075
#	Creating user name:	WinNT
#	Creation time:	15. 06. 2019 20:58

#	Modifying user name:	WinNT
#	Modification time:	15. 06. 2019 20:58

#	Program:	/corina/corina34_cracker 3.40 0067  02.08.2006

@<TRIPOS>MOLECULE
ASD05313075
  39   42    0    0    0
SMALL
NO_CHARGES


@<TRIPOS>ATOM
   1 C1            -0.0733     0.8216     1.0163 C.2     
   2 C2             0.1124    -0.6155     0.5916 C.3     
   3 N3             0.9366     1.7380     1.0423 N.pl3   
   4 N4             1.4565    -0.7158    -0.0081 N.am    
   5 C5             2.5711    -0.0361     0.6690 C.3     
   6 C6             2.3226     1.4771     0.6586 C.3     
   7 N7            -0.8985     2.6488     1.6949 N.2     
   8 N8            -1.1550     1.4169     1.4162 N.2     
   9 C9             0.3779     2.8979     1.4834 C.2     
  10 N10            2.6021     5.7667     1.7905 N.pl3   
  11 N11            2.3496     4.4255     1.4755 N.2     
  12 C12            1.0709     4.1890     1.6887 C.2     
  13 C13            0.4801     5.3844     2.1470 C.2     
  14 C14            1.4435     6.3291     2.1978 C.2     
  15 C15            3.8994     6.4412     1.7000 C.3     
  16 C16            1.6575    -1.4114    -1.1448 C.2     
  17 O17            2.7499    -1.4017    -1.6783 O.2     
  18 C18            0.5510    -2.1852    -1.7422 C.ar    
  19 C19            0.3197    -2.1298    -3.1199 C.ar    
  20 C20           -0.7158    -2.8558    -3.6721 C.ar    
  21 C21           -1.5250    -3.6383    -2.8633 C.ar    
  22 C22           -1.2997    -3.6960    -1.4962 C.ar    
  23 C23           -0.2650    -2.9799    -0.9341 C.ar    
  24 F24           -2.5374    -4.3471    -3.4089 F       
  25 Cl25           1.3323    -1.1496    -4.1335 Cl      
  26 H26            0.0419    -1.2719     1.4589 H       
  27 H27           -0.6446    -0.8868    -0.1442 H       
  28 H28            2.6394    -0.3866     1.6989 H       
  29 H29            3.5023    -0.2555     0.1468 H       
  30 H30            2.5036     1.8691    -0.3422 H       
  31 H31            2.9942     1.9614     1.3675 H       
  32 H32           -0.5584     5.5203     2.4105 H       
  33 H33            1.3110     7.3545     2.5099 H       
  34 H34            4.0145     6.8757     0.7070 H       
  35 H35            3.9519     7.2302     2.4501 H       
  36 H36            4.6972     5.7194     1.8755 H       
  37 H37           -0.8963    -2.8140    -4.7361 H       
  38 H38           -1.9341    -4.3069    -0.8710 H       
  39 H39           -0.0881    -3.0299     0.1301 H       
@<TRIPOS>BOND
   1    1    2 1
   2    1    3 1
   3    1    8 2
   4    2    4 1
   5    2   26 1
   6    2   27 1
   7    3    6 1
   8    3    9 1
   9    4    5 1
  10    4   16 am
  11    5    6 1
  12    5   28 1
  13    5   29 1
  14    6   30 1
  15    6   31 1
  16    7    8 1
  17    7    9 2
  18    9   12 1
  19   10   11 1
  20   10   14 1
  21   10   15 1
  22   11   12 2
  23   12   13 1
  24   13   14 2
  25   13   32 1
  26   14   33 1
  27   15   34 1
  28   15   35 1
  29   15   36 1
  30   16   17 2
  31   16   18 1
  32   18   19 ar
  33   18   23 ar
  34   19   20 ar
  35   19   25 1
  36   20   21 ar
  37   20   37 1
  38   21   22 ar
  39   21   24 1
  40   22   23 ar
  41   22   38 1
  42   23   39 1

#	End of record

