#	Name: ASD00069077
#	Creating user name:	WinNT
#	Creation time:	15. 06. 2019 18:29

#	Modifying user name:	WinNT
#	Modification time:	15. 06. 2019 18:29

#	Program:	/corina/corina34_cracker 3.40 0067  02.08.2006

@<TRIPOS>MOLECULE
ASD00069077
  42   46    0    0    0
SMALL
NO_CHARGES


@<TRIPOS>ATOM
   1 C1            -0.0168     1.3854     0.0097 C.ar    
   2 C2             0.0021    -0.0041     0.0020 C.ar    
   3 C3             1.1879    -0.6829    -0.0129 C.ar    
   4 C4             2.3919     0.0239    -0.0206 C.ar    
   5 C5             2.3778     1.4303    -0.0129 C.ar    
   6 C6             1.1580     2.1024     0.0023 C.ar    
   7 C7             3.8050    -0.3739    -0.0362 C.2     
   8 N8             4.5246     0.7246    -0.0372 N.2     
   9 N9             3.6862     1.8437    -0.0232 N.pl3   
  10 C10            4.3226    -1.7563    -0.0478 C.2     
  11 N11            3.5825    -2.8393    -0.0463 N.2     
  12 N12            5.6479    -2.1015    -0.0678 N.pl3   
  13 Br13          -1.6273    -0.9637     0.0130 Br      
  14 C14            4.1344     3.2385    -0.0199 C.3     
  15 O15            5.1958     3.3958     0.9239 O.3     
  16 C16            5.6924     4.7319     1.0261 C.3     
  17 C17            6.2554     5.1706    -0.3282 C.3     
  18 C18            5.1571     5.0569    -1.3900 C.3     
  19 C19            4.6348     3.6172    -1.4163 C.3     
  20 C20            4.3794    -3.9354    -0.0591 C.ar    
  21 C21            5.7103    -3.4818    -0.0729 C.ar    
  22 C22            4.1219    -5.3103    -0.0630 C.ar    
  23 C23            5.1605    -6.1973    -0.0767 C.ar    
  24 C24            6.4739    -5.7495    -0.0867 C.ar    
  25 C25            6.7521    -4.3987    -0.0873 C.ar    
  26 H26           -0.9621     1.9075     0.0169 H       
  27 H27            1.1938    -1.7628    -0.0184 H       
  28 H28            1.1340     3.1821     0.0080 H       
  29 H29            6.4017    -1.4911    -0.0767 H       
  30 H30            3.3029     3.8868     0.2566 H       
  31 H31            4.8814     5.3999     1.3163 H       
  32 H32            6.4813     4.7700     1.7773 H       
  33 H33            6.5944     6.2045    -0.2641 H       
  34 H34            7.0927     4.5279    -0.6000 H       
  35 H35            4.3410     5.7364    -1.1446 H       
  36 H36            5.5664     5.3142    -2.3669 H       
  37 H37            5.4394     2.9431    -1.7101 H       
  38 H38            3.8149     3.5402    -2.1304 H       
  39 H39            3.1035    -5.6699    -0.0550 H       
  40 H40            4.9575    -7.2581    -0.0793 H       
  41 H41            7.2840    -6.4637    -0.0974 H       
  42 H42            7.7762    -4.0558    -0.0955 H       
@<TRIPOS>BOND
   1    1    2 ar
   2    1    6 ar
   3    1   26 1
   4    2    3 ar
   5    2   13 1
   6    3    4 ar
   7    3   27 1
   8    4    5 ar
   9    4    7 1
  10    5    6 ar
  11    5    9 1
  12    6   28 1
  13    7    8 2
  14    7   10 1
  15    8    9 1
  16    9   14 1
  17   10   11 2
  18   10   12 1
  19   11   20 1
  20   12   21 1
  21   12   29 1
  22   14   15 1
  23   14   19 1
  24   14   30 1
  25   15   16 1
  26   16   17 1
  27   16   31 1
  28   16   32 1
  29   17   18 1
  30   17   33 1
  31   17   34 1
  32   18   19 1
  33   18   35 1
  34   18   36 1
  35   19   37 1
  36   19   38 1
  37   20   21 ar
  38   20   22 ar
  39   21   25 ar
  40   22   23 ar
  41   22   39 1
  42   23   24 ar
  43   23   40 1
  44   24   25 ar
  45   24   41 1
  46   25   42 1

#	End of record

