#	Name: ASD09740090
#	Creating user name:	WinNT
#	Creation time:	15. 06. 2019 21:22

#	Modifying user name:	WinNT
#	Modification time:	15. 06. 2019 21:22

#	Program:	/corina/corina34_cracker 3.40 0067  02.08.2006

@<TRIPOS>MOLECULE
ASD09740090
  34   36    0    0    0
SMALL
NO_CHARGES


@<TRIPOS>ATOM
   1 O1            -0.0144     1.2085     0.0087 O.3     
   2 N2             0.0021    -0.0041     0.0020 N.2     
   3 C3             1.2410     1.6827    -0.0008 C.2     
   4 N4             2.0453     0.6365    -0.0141 N.2     
   5 C5             1.2345    -0.4419    -0.0121 C.2     
   6 C6             1.6625    -1.8640    -0.0238 C.ar    
   7 C7             1.6456     3.1048     0.0026 C.ar    
   8 C8             0.7215    -2.8964    -0.0204 C.ar    
   9 C9             3.0169    -2.2054    -0.0445 C.ar    
  10 C10            3.3713    -3.5395    -0.0553 C.ar    
  11 N11            2.4512    -4.4843    -0.0464 N.ar    
  12 C12            1.1624    -4.2046    -0.0321 C.ar    
  13 C13            2.9989     3.4480    -0.0090 C.ar    
  14 C14            3.3740     4.7759    -0.0058 C.ar    
  15 C15            2.4138     5.7703     0.0093 C.ar    
  16 C16            1.0640     5.4392     0.0209 C.ar    
  17 C17            0.6768     4.1076     0.0115 C.ar    
  18 N18            0.0974     6.4477     0.0365 N.pl3   
  19 C19            0.5065     7.8544     0.0407 C.3     
  20 C20           -1.3253     6.0986     0.0487 C.3     
  21 H21           -0.3354    -2.6745    -0.0084 H       
  22 H22            3.7757    -1.4368    -0.0522 H       
  23 H23            4.4159    -3.8133    -0.0716 H       
  24 H24            0.4424    -5.0095    -0.0248 H       
  25 H25            3.7521     2.6741    -0.0200 H       
  26 H26            4.4214     5.0392    -0.0147 H       
  27 H27            2.7135     6.8079     0.0125 H       
  28 H28           -0.3715     3.8481     0.0201 H       
  29 H29            0.5977     8.2094    -0.9858 H       
  30 H30           -0.2414     8.4488     0.5656 H       
  31 H31            1.4677     7.9518     0.5456 H       
  32 H32           -1.6679     6.0059     1.0793 H       
  33 H33           -1.8954     6.8794    -0.4548 H       
  34 H34           -1.4713     5.1507    -0.4693 H       
@<TRIPOS>BOND
   1    1    2 1
   2    1    3 1
   3    2    5 2
   4    3    4 2
   5    3    7 1
   6    4    5 1
   7    5    6 1
   8    6    8 ar
   9    6    9 ar
  10    7   13 ar
  11    7   17 ar
  12    8   12 ar
  13    8   21 1
  14    9   10 ar
  15    9   22 1
  16   10   11 ar
  17   10   23 1
  18   11   12 ar
  19   12   24 1
  20   13   14 ar
  21   13   25 1
  22   14   15 ar
  23   14   26 1
  24   15   16 ar
  25   15   27 1
  26   16   17 ar
  27   16   18 1
  28   17   28 1
  29   18   19 1
  30   18   20 1
  31   19   29 1
  32   19   30 1
  33   19   31 1
  34   20   32 1
  35   20   33 1
  36   20   34 1

#	End of record

