#	Name: ASD02508391
#	Creating user name:	WinNT
#	Creation time:	15. 06. 2019 20:24

#	Modifying user name:	WinNT
#	Modification time:	15. 06. 2019 20:24

#	Program:	/corina/corina34_cracker 3.40 0067  02.08.2006

@<TRIPOS>MOLECULE
ASD02508391
  36   38    0    0    0
SMALL
NO_CHARGES


@<TRIPOS>ATOM
   1 C1             0.1816     1.7275     0.1495 C.2     
   2 C2             0.0951     0.3387     0.3759 C.2     
   3 C3             1.3399    -0.1676     0.2680 C.2     
   4 N4             2.1949     0.8593    -0.0174 N.pl3   
   5 C5             1.4761     2.0192    -0.0885 C.2     
   6 C6             3.5754     0.7427    -0.2051 C.ar    
   7 C7             4.4376     1.5958     0.4752 C.ar    
   8 N8             4.0497    -0.1817    -1.0238 N.ar    
   9 C9             5.3448    -0.3262    -1.2292 C.ar    
  10 C10            6.2587     0.4893    -0.5913 C.ar    
  11 C11            5.8029     1.4688     0.2802 C.ar    
  12 S12            1.7870    -1.8608     0.4621 S.o2    
  13 O13            1.5953    -2.4743    -0.8053 O.2     
  14 O14            3.0300    -1.8712     1.1505 O.2     
  15 O15            0.7695    -2.4905     1.4026 O.3     
  16 C16            0.9433    -2.1568     2.7087 C.ar    
  17 C17            0.2291    -1.1014     3.2568 C.ar    
  18 C18            0.4068    -0.7640     4.5846 C.ar    
  19 C19            1.2965    -1.4780     5.3677 C.ar    
  20 C20            2.0098    -2.5309     4.8228 C.ar    
  21 C21            1.8309    -2.8747     3.4968 C.ar    
  22 Cl22           3.8113     2.8037     1.5534 Cl      
  23 Cl23           1.5184    -1.0517     7.0358 Cl      
  24 C24            7.7355     0.3140    -0.8346 C.3     
  25 F25            7.9379    -0.7327    -1.7404 F       
  26 F26            8.2648     1.4965    -1.3625 F       
  27 F27            8.3749     0.0154     0.3734 F       
  28 H28           -0.6396     2.4288     0.1601 H       
  29 H29           -0.8040    -0.2178     0.5956 H       
  30 H30            1.8759     3.0001    -0.2993 H       
  31 H31            5.6950    -1.0926    -1.9048 H       
  32 H32            6.4968     2.1195     0.7915 H       
  33 H33           -0.4651    -0.5436     2.6458 H       
  34 H34           -0.1488     0.0578     5.0116 H       
  35 H35            2.7037    -3.0871     5.4356 H       
  36 H36            2.3879    -3.6967     3.0719 H       
@<TRIPOS>BOND
   1    1    2 1
   2    1    5 2
   3    1   28 1
   4    2    3 2
   5    2   29 1
   6    3    4 1
   7    3   12 1
   8    4    5 1
   9    4    6 1
  10    5   30 1
  11    6    7 ar
  12    6    8 ar
  13    7   22 1
  14    7   11 ar
  15    8    9 ar
  16    9   10 ar
  17    9   31 1
  18   10   11 ar
  19   10   24 1
  20   11   32 1
  21   12   13 2
  22   12   14 2
  23   12   15 1
  24   15   16 1
  25   16   17 ar
  26   16   21 ar
  27   17   18 ar
  28   17   33 1
  29   18   19 ar
  30   18   34 1
  31   19   20 ar
  32   19   23 1
  33   20   21 ar
  34   20   35 1
  35   21   36 1
  36   24   25 1
  37   24   26 1
  38   24   27 1

#	End of record

