#	Name: ASD01914992
#	Creating user name:	WinNT
#	Creation time:	15. 06. 2019 20:04

#	Modifying user name:	WinNT
#	Modification time:	15. 06. 2019 20:04

#	Program:	/corina/corina34_cracker 3.40 0067  02.08.2006

@<TRIPOS>MOLECULE
ASD01914992
  23   24    0    0    0
SMALL
NO_CHARGES


@<TRIPOS>ATOM
   1 N1            -0.0159     1.3204     0.0093 N.ar    
   2 C2             0.0021    -0.0041     0.0020 C.ar    
   3 C3             1.2020    -0.7088    -0.0127 C.ar    
   4 C4             2.3937    -0.0101    -0.0195 C.ar    
   5 C5             2.3364     1.3866    -0.0115 C.ar    
   6 C6             3.5641     2.2045    -0.0170 C.2     
   7 N7             3.4902     3.5004     0.3487 N.am    
   8 C8             2.2313     4.0845     0.8036 C.3     
   9 C9             1.0510     3.5325     0.0080 C.3     
  10 C10            1.0948     2.0262     0.0025 C.ar    
  11 O11            4.6279     1.7171    -0.3472 O.2     
  12 O12           -1.1693    -0.6852     0.0095 O.3     
  13 C13           -2.3700     0.0894     0.0251 C.3     
  14 H14            1.2016    -1.7888    -0.0185 H       
  15 H15            3.3416    -0.5276    -0.0302 H       
  16 H16            4.2861     4.0535     0.3092 H       
  17 H17            2.0905     3.8532     1.8594 H       
  18 H18            2.2728     5.1664     0.6777 H       
  19 H19            0.1191     3.8658     0.4647 H       
  20 H20            1.1018     3.8998    -1.0169 H       
  21 H21           -2.3883     0.7134     0.9187 H       
  22 H22           -2.4053     0.7229    -0.8612 H       
  23 H23           -3.2324    -0.5772     0.0297 H       
@<TRIPOS>BOND
   1    1    2 ar
   2    1   10 ar
   3    2    3 ar
   4    2   12 1
   5    3    4 ar
   6    3   14 1
   7    4    5 ar
   8    4   15 1
   9    5    6 1
  10    5   10 ar
  11    6    7 am
  12    6   11 2
  13    7    8 1
  14    7   16 1
  15    8    9 1
  16    8   17 1
  17    8   18 1
  18    9   10 1
  19    9   19 1
  20    9   20 1
  21   12   13 1
  22   13   21 1
  23   13   22 1
  24   13   23 1

#	End of record

