#	Name: ASD01917748
#	Creating user name:	WinNT
#	Creation time:	15. 06. 2019 20:09

#	Modifying user name:	WinNT
#	Modification time:	15. 06. 2019 20:09

#	Program:	/corina/corina34_cracker 3.40 0067  02.08.2006

@<TRIPOS>MOLECULE
ASD01917748
  40   43    0    0    0
SMALL
NO_CHARGES


@<TRIPOS>ATOM
   1 C1            -0.1103     1.6083    -0.1763 C.2     
   2 C2            -0.1185     0.2237    -0.1522 C.2     
   3 C3            -1.4283    -0.5488    -0.1639 C.3     
   4 C4            -2.4806     0.3122    -0.8698 C.3     
   5 C5            -2.6158     1.6673    -0.1752 C.3     
   6 C6            -1.2883     2.3923    -0.2030 C.2     
   7 O7            -1.2353     3.6045    -0.2487 O.2     
   8 S8             1.5575     2.1492    -0.1599 S.3     
   9 C9             2.0932     0.5257    -0.1201 C.2     
  10 N10            1.0864    -0.2875    -0.1217 N.2     
  11 C11            3.5386     0.1005    -0.0884 C.3     
  12 C12            4.0437    -0.0679    -1.4982 C.ar    
  13 C13            4.6133     1.0029    -2.1602 C.ar    
  14 C14            5.0800     0.8530    -3.4585 C.ar    
  15 C15            4.9778    -0.3793    -4.0927 C.ar    
  16 C16            4.4014    -1.4517    -3.4192 C.ar    
  17 C17            3.9422    -1.2952    -2.1265 C.ar    
  18 O18            5.6259     1.9304    -4.0868 O.3     
  19 C19            6.3802     1.6680    -5.2746 C.3     
  20 C20            5.5795     0.6813    -6.1342 C.3     
  21 N21            5.4442    -0.5798    -5.3958 N.3     
  22 C22            4.5867    -1.5258    -6.1222 C.3     
  23 H23           -1.2978    -1.4870    -0.7033 H       
  24 H24           -1.7450    -0.7524     0.8590 H       
  25 H25           -2.1828     0.4669    -1.9069 H       
  26 H26           -3.4414    -0.2020    -0.8468 H       
  27 H27           -3.3669     2.2656    -0.6909 H       
  28 H28           -2.9229     1.5151     0.8595 H       
  29 H29            4.1300     0.8612     0.4211 H       
  30 H30            3.6272    -0.8461     0.4448 H       
  31 H31            4.6952     1.9596    -1.6658 H       
  32 H32            4.3163    -2.4110    -3.9079 H       
  33 H33            3.4955    -2.1308    -1.6083 H       
  34 H34            6.5348     2.5957    -5.8256 H       
  35 H35            7.3429     1.2303    -5.0109 H       
  36 H36            4.5913     1.0930    -6.3394 H       
  37 H37            6.1059     0.5018    -7.0717 H       
  38 H38            4.9529    -1.6385    -7.1427 H       
  39 H39            4.6062    -2.4932    -5.6203 H       
  40 H40            3.5646    -1.1477    -6.1427 H       
@<TRIPOS>BOND
   1    1    2 2
   2    1    8 1
   3    1    6 1
   4    2    3 1
   5    2   10 1
   6    3    4 1
   7    3   23 1
   8    3   24 1
   9    4    5 1
  10    4   25 1
  11    4   26 1
  12    5    6 1
  13    5   27 1
  14    5   28 1
  15    6    7 2
  16    8    9 1
  17    9   10 2
  18    9   11 1
  19   11   12 1
  20   11   29 1
  21   11   30 1
  22   12   13 ar
  23   12   17 ar
  24   13   14 ar
  25   13   31 1
  26   14   15 ar
  27   14   18 1
  28   15   16 ar
  29   15   21 1
  30   16   17 ar
  31   16   32 1
  32   17   33 1
  33   18   19 1
  34   19   20 1
  35   19   34 1
  36   19   35 1
  37   20   21 1
  38   20   36 1
  39   20   37 1
  40   21   22 1
  41   22   38 1
  42   22   39 1
  43   22   40 1

#	End of record

