#	Name: ASD02500372
#	Creating user name:	WinNT
#	Creation time:	15. 06. 2019 20:22

#	Modifying user name:	WinNT
#	Modification time:	15. 06. 2019 20:22

#	Program:	/corina/corina34_cracker 3.40 0067  02.08.2006

@<TRIPOS>MOLECULE
ASD02500372
  51   54    0    0    0
SMALL
NO_CHARGES


@<TRIPOS>ATOM
   1 C1            -1.9650     4.1061    -0.4896 C.ar    
   2 C2            -0.8659     4.9429    -0.5415 C.ar    
   3 C3            -1.0086     6.2456    -0.9802 C.ar    
   4 C4            -2.2531     6.7126    -1.3677 C.ar    
   5 C5            -3.3533     5.8736    -1.3153 C.ar    
   6 C6            -3.2081     4.5712    -0.8763 C.ar    
   7 S7            -1.7802     2.4432     0.0630 S.o2    
   8 O8            -2.9207     1.7360    -0.4041 O.2     
   9 O9            -0.4475     2.0622    -0.2499 O.2     
  10 N10           -1.8856     2.4613     1.7155 N.am    
  11 F11           -2.3939     7.9861    -1.7963 F       
  12 C12           -0.9490     3.1652     2.4643 C.ar    
  13 C13           -1.3699     4.0003     3.4957 C.ar    
  14 C14           -0.4454     4.6983     4.2385 C.ar    
  15 C15            0.9176     4.5682     3.9565 C.ar    
  16 C16            1.3371     3.7290     2.9202 C.ar    
  17 C17            0.4080     3.0292     2.1847 C.ar    
  18 C18            1.9112     5.3155     4.7505 C.2     
  19 O19            2.9562     4.7837     5.0729 O.2     
  20 N20            1.6609     6.5876     5.1187 N.am    
  21 C21            2.6713     7.3781     5.8379 C.3     
  22 C22            2.8495     8.7161     5.1124 C.3     
  23 N23            1.5411     9.3673     4.9645 N.3     
  24 C24            0.6387     8.5661     4.1268 C.3     
  25 C25            0.3722     7.2241     4.8066 C.3     
  26 C26            1.6791    10.6488     4.4601 C.ar    
  27 N27            0.5959    11.3856     4.2615 N.ar    
  28 C28            0.6933    12.6151     3.7808 C.ar    
  29 C29            1.9489    13.1283     3.4848 C.ar    
  30 C30            3.0588    12.3299     3.7049 C.ar    
  31 N31            2.8913    11.1111     4.1925 N.ar    
  32 Cl32          -0.7310    13.5736     3.5231 Cl      
  33 H33            0.1047     4.5785    -0.2388 H       
  34 H34           -0.1498     6.8993    -1.0203 H       
  35 H35           -4.3245     6.2367    -1.6174 H       
  36 H36           -4.0661     3.9166    -0.8354 H       
  37 H37           -2.6007     1.9807     2.1612 H       
  38 H38           -2.4231     4.1006     3.7128 H       
  39 H39           -0.7726     5.3462     5.0383 H       
  40 H40            2.3894     3.6267     2.6997 H       
  41 H41            0.7317     2.3770     1.3870 H       
  42 H42            2.3367     7.5574     6.8597 H       
  43 H43            3.6184     6.8387     5.8491 H       
  44 H44            3.5122     9.3587     5.6920 H       
  45 H45            3.2820     8.5409     4.1273 H       
  46 H46           -0.3019     9.1000     3.9916 H       
  47 H47            1.1020     8.3931     3.1555 H       
  48 H48           -0.2001     6.5828     4.1362 H       
  49 H49           -0.1877     7.3882     5.7273 H       
  50 H50            2.0576    14.1281     3.0911 H       
  51 H51            4.0497    12.6991     3.4851 H       
@<TRIPOS>BOND
   1    1    2 ar
   2    1    6 ar
   3    1    7 1
   4    2    3 ar
   5    2   33 1
   6    3    4 ar
   7    3   34 1
   8    4    5 ar
   9    4   11 1
  10    5    6 ar
  11    5   35 1
  12    6   36 1
  13    7    8 2
  14    7    9 2
  15    7   10 am
  16   10   12 1
  17   10   37 1
  18   12   13 ar
  19   12   17 ar
  20   13   14 ar
  21   13   38 1
  22   14   15 ar
  23   14   39 1
  24   15   16 ar
  25   15   18 1
  26   16   17 ar
  27   16   40 1
  28   17   41 1
  29   18   19 2
  30   18   20 am
  31   20   21 1
  32   20   25 1
  33   21   22 1
  34   21   42 1
  35   21   43 1
  36   22   23 1
  37   22   44 1
  38   22   45 1
  39   23   24 1
  40   23   26 1
  41   24   25 1
  42   24   46 1
  43   24   47 1
  44   25   48 1
  45   25   49 1
  46   26   27 ar
  47   26   31 ar
  48   27   28 ar
  49   28   29 ar
  50   28   32 1
  51   29   30 ar
  52   29   50 1
  53   30   31 ar
  54   30   51 1

#	End of record

