#	Name: ASD01150364
#	Creating user name:	WinNT
#	Creation time:	15. 06. 2019 19:04

#	Modifying user name:	WinNT
#	Modification time:	15. 06. 2019 19:04

#	Program:	/corina/corina34_cracker 3.40 0067  02.08.2006

@<TRIPOS>MOLECULE
ASD01150364
  41   43    0    0    0
SMALL
NO_CHARGES


@<TRIPOS>ATOM
   1 C1             2.0744     1.1972     0.9500 C.ar    
   2 C2             2.0529    -0.1578     0.6825 C.ar    
   3 C3             1.2097    -0.6598    -0.2904 C.ar    
   4 C4             0.3806     0.1973    -1.0028 C.ar    
   5 C5             0.3993     1.5589    -0.7363 C.ar    
   6 C6             1.2471     2.0599     0.2412 C.ar    
   7 N7             1.2690     3.4327     0.5131 N.am    
   8 C8             0.1111     4.0908     0.7001 C.2     
   9 N9             0.0985     5.4109     0.9636 N.am    
  10 C10            1.2588     6.0947     1.0432 C.2     
  11 C11            2.5232     5.3822     0.8403 C.2     
  12 N12            2.4962     4.1017     0.5925 N.2     
  13 O13            1.2554     7.2886     1.2803 O.2     
  14 C14           -1.1758     6.1054     1.1635 C.3     
  15 O15           -0.9404     3.4843     0.6297 O.2     
  16 N16           -0.4723    -0.3119    -1.9884 N.am    
  17 C17           -1.0487    -1.5188    -1.8228 C.2     
  18 C18           -2.0488    -2.0211    -2.8322 C.3     
  19 O19           -0.7626    -2.2008    -0.8616 O.2     
  20 C20           -1.5454     6.0664     2.6239 C.ar    
  21 C21           -1.4062     7.1995     3.4024 C.ar    
  22 C22           -1.7450     7.1646     4.7423 C.ar    
  23 C23           -2.2235     5.9951     5.3053 C.ar    
  24 C24           -2.3636     4.8598     4.5274 C.ar    
  25 C25           -2.0301     4.8964     3.1845 C.ar    
  26 Cl26          -2.6477     5.9520     6.9881 Cl      
  27 F27           -2.1668     3.7885     2.4236 F       
  28 H28            2.7315     1.5859     1.7138 H       
  29 H29            2.6968    -0.8263     1.2347 H       
  30 H30            1.1955    -1.7197    -0.4974 H       
  31 H31           -0.2441     2.2274    -1.2891 H       
  32 H32            3.4642     5.9090     0.8990 H       
  33 H33           -1.0791     7.1421     0.8408 H       
  34 H34           -1.9532     5.6138     0.5787 H       
  35 H35           -0.6486     0.2039    -2.7908 H       
  36 H36           -1.5745    -2.0878    -3.8113 H       
  37 H37           -2.4036    -3.0071    -2.5324 H       
  38 H38           -2.8914    -1.3315    -2.8828 H       
  39 H39           -1.0320     8.1129     2.9640 H       
  40 H40           -1.6358     8.0508     5.3498 H       
  41 H41           -2.7371     3.9465     4.9666 H       
@<TRIPOS>BOND
   1    1    2 ar
   2    1    6 ar
   3    1   28 1
   4    2    3 ar
   5    2   29 1
   6    3    4 ar
   7    3   30 1
   8    4    5 ar
   9    4   16 1
  10    5    6 ar
  11    5   31 1
  12    6    7 1
  13    7    8 am
  14    7   12 1
  15    8    9 am
  16    8   15 2
  17    9   10 am
  18    9   14 1
  19   10   11 1
  20   10   13 2
  21   11   12 2
  22   11   32 1
  23   14   20 1
  24   14   33 1
  25   14   34 1
  26   16   17 am
  27   16   35 1
  28   17   18 1
  29   17   19 2
  30   18   36 1
  31   18   37 1
  32   18   38 1
  33   20   21 ar
  34   20   25 ar
  35   21   22 ar
  36   21   39 1
  37   22   23 ar
  38   22   40 1
  39   23   24 ar
  40   23   26 1
  41   24   25 ar
  42   24   41 1
  43   25   27 1

#	End of record

