#	Name: ASD01910994
#	Creating user name:	WinNT
#	Creation time:	15. 06. 2019 19:56

#	Modifying user name:	WinNT
#	Modification time:	15. 06. 2019 19:56

#	Program:	/corina/corina34_cracker 3.40 0067  02.08.2006

@<TRIPOS>MOLECULE
ASD01910994
  51   55    0    0    0
SMALL
NO_CHARGES


@<TRIPOS>ATOM
   1 N1             0.1393     1.3756    -0.1950 N.3     
   2 C2             0.0792    -0.0903    -0.1200 C.3     
   3 C3            -1.3666    -0.5263     0.1403 C.3     
   4 N4            -2.2292     0.0798    -0.8853 N.am    
   5 C5            -2.1254     1.5290    -1.1141 C.3     
   6 C6            -0.6497     1.8841    -1.3250 C.3     
   7 C7            -3.0915    -0.6728    -1.5969 C.2     
   8 C8            -4.0358    -0.0287    -2.5332 C.ar    
   9 C9            -4.3100    -0.6218    -3.7685 C.ar    
  10 C10           -5.1915    -0.0237    -4.6454 C.ar    
  11 C11           -5.8105     1.1670    -4.3091 C.ar    
  12 C12           -5.5444     1.7722    -3.0735 C.ar    
  13 C13           -4.6583     1.1679    -2.1830 C.ar    
  14 C14           -6.1843     3.0049    -2.7247 C.1     
  15 O15           -3.0924    -1.8817    -1.4685 O.2     
  16 C16           -6.7090     4.0154    -2.4388 C.1     
  17 C17           -7.3490     5.2481    -2.0900 C.ar    
  18 N18           -7.0915     5.8164    -0.9159 N.ar    
  19 C19           -7.6600     6.9497    -0.5588 C.ar    
  20 C20           -8.5510     7.5933    -1.3978 C.ar    
  21 C21           -8.8493     7.0353    -2.6340 C.ar    
  22 C22           -8.2355     5.8481    -2.9885 C.ar    
  23 C23            1.4531     1.8164    -0.2675 C.2     
  24 F24           -6.6722     1.7470    -5.1729 F       
  25 C25            1.9007     3.2149    -0.3541 C.ar    
  26 C26            3.3025     3.1797    -0.4064 C.ar    
  27 O27            3.6723     1.8837    -0.3564 O.3     
  28 N28            2.5214     1.0682    -0.2658 N.2     
  29 C29            1.2336     4.4396    -0.3888 C.ar    
  30 C30            1.9492     5.6011    -0.4736 C.ar    
  31 C31            3.3353     5.5713    -0.5260 C.ar    
  32 C32            4.0125     4.3714    -0.4929 C.ar    
  33 H33            0.4239    -0.5171    -1.0618 H       
  34 H34            0.7162    -0.4393     0.6927 H       
  35 H35           -1.4375    -1.6124     0.0831 H       
  36 H36           -1.6790    -0.1877     1.1281 H       
  37 H37           -2.6979     1.8016    -2.0007 H       
  38 H38           -2.5107     2.0651    -0.2469 H       
  39 H39           -0.5413     2.9669    -1.3862 H       
  40 H40           -0.2949     1.4297    -2.2501 H       
  41 H41           -3.8301    -1.5511    -4.0379 H       
  42 H42           -5.3990    -0.4869    -5.5987 H       
  43 H43           -4.4492     1.6291    -1.2291 H       
  44 H44           -7.4272     7.3822     0.4031 H       
  45 H45           -9.0113     8.5219    -1.0942 H       
  46 H46           -9.5425     7.5202    -3.3055 H       
  47 H47           -8.4444     5.3869    -3.9425 H       
  48 H48            0.1547     4.4699    -0.3491 H       
  49 H49            1.4319     6.5487    -0.5004 H       
  50 H50            3.8884     6.4965    -0.5933 H       
  51 H51            5.0916     4.3571    -0.5344 H       
@<TRIPOS>BOND
   1    1    2 1
   2    1   23 1
   3    1    6 1
   4    2    3 1
   5    2   33 1
   6    2   34 1
   7    3    4 1
   8    3   35 1
   9    3   36 1
  10    4    5 1
  11    4    7 am
  12    5    6 1
  13    5   37 1
  14    5   38 1
  15    6   39 1
  16    6   40 1
  17    7    8 1
  18    7   15 2
  19    8    9 ar
  20    8   13 ar
  21    9   10 ar
  22    9   41 1
  23   10   11 ar
  24   10   42 1
  25   11   12 ar
  26   11   24 1
  27   12   13 ar
  28   12   14 1
  29   13   43 1
  30   14   16 3
  31   16   17 1
  32   17   18 ar
  33   17   22 ar
  34   18   19 ar
  35   19   20 ar
  36   19   44 1
  37   20   21 ar
  38   20   45 1
  39   21   22 ar
  40   21   46 1
  41   22   47 1
  42   23   25 1
  43   23   28 2
  44   25   26 ar
  45   25   29 ar
  46   26   27 1
  47   26   32 ar
  48   27   28 1
  49   29   30 ar
  50   29   48 1
  51   30   31 ar
  52   30   49 1
  53   31   32 ar
  54   31   50 1
  55   32   51 1

#	End of record

