#	Name: ASD03091129
#	Creating user name:	WinNT
#	Creation time:	15. 06. 2019 20:30

#	Modifying user name:	WinNT
#	Modification time:	15. 06. 2019 20:30

#	Program:	/corina/corina34_cracker 3.40 0067  02.08.2006

@<TRIPOS>MOLECULE
ASD03091129
  50   53    0    0    0
SMALL
NO_CHARGES


@<TRIPOS>ATOM
   1 C1            -0.0948     1.3917    -0.0148 C.2     
   2 C2            -0.0334    -0.1139     0.0030 C.3     
   3 O3             0.9259     2.0378    -0.0384 O.2     
   4 O4            -1.2836     2.0150    -0.0098 O.3     
   5 N5             3.2671    -1.1110     1.2288 N.2     
   6 C6             2.0283    -0.7298     1.1600 C.2     
   7 N7             1.3664    -0.5458    -0.0131 N.am    
   8 C8             1.9891    -0.7585    -1.1958 C.2     
   9 C9             3.3939    -1.1914    -1.1528 C.ar    
  10 C10            4.1245    -1.4375    -2.3130 C.ar    
  11 C11            5.4442    -1.8435    -2.2097 C.ar    
  12 C12            6.0370    -2.0047    -0.9575 C.ar    
  13 C13            5.3320    -1.7673     0.1878 C.ar    
  14 C14            3.9993    -1.3563     0.1127 C.ar    
  15 O15            1.4089    -0.5982    -2.2539 O.2     
  16 C16            1.2852    -0.4787     2.4469 C.3     
  17 C17            2.2145    -0.7454     3.6327 C.3     
  18 N18            7.2695    -1.5692    -6.0732 N.3     
  19 C19            6.0740    -2.3910    -5.8303 C.3     
  20 C20            5.3574    -1.9370    -4.5681 C.3     
  21 N21            6.1866    -2.0937    -3.3672 N.3     
  22 C22            7.3667    -1.2204    -3.4350 C.3     
  23 C23            8.5559    -1.9784    -4.0057 C.3     
  24 C24            8.4539    -2.2225    -5.4978 C.3     
  25 C25            7.1684    -0.1704    -5.7160 C.3     
  26 C26            7.0151     0.0316    -4.2175 C.3     
  27 H27           -0.5183    -0.4867     0.9052 H       
  28 H28           -0.5456    -0.5088    -0.8744 H       
  29 H29           -1.2724     2.9819    -0.0218 H       
  30 H30            3.6662    -1.3133    -3.2830 H       
  31 H31            7.0673    -2.3220    -0.8927 H       
  32 H32            5.8045    -1.8971     1.1502 H       
  33 H33            0.9480     0.5574     2.4755 H       
  34 H34            0.4231    -1.1431     2.5042 H       
  35 H35            1.6771    -0.5638     4.5635 H       
  36 H36            2.5518    -1.7815     3.6041 H       
  37 H37            3.0767    -0.0810     3.5754 H       
  38 H38            5.3972    -2.3002    -6.6799 H       
  39 H39            6.3716    -3.4336    -5.7190 H       
  40 H40            5.0855    -0.8869    -4.6749 H       
  41 H41            4.4474    -2.5250    -4.4480 H       
  42 H42            7.6171    -0.9126    -2.4198 H       
  43 H43            9.4627    -1.4074    -3.8063 H       
  44 H44            8.6332    -2.9403    -3.4988 H       
  45 H45            8.3918    -3.2955    -5.6795 H       
  46 H46            9.3475    -1.8316    -5.9843 H       
  47 H47            8.0674     0.3462    -6.0522 H       
  48 H48            6.3046     0.2619    -6.2212 H       
  49 H49            5.9828     0.3066    -4.0008 H       
  50 H50            7.6701     0.8431    -3.9005 H       
@<TRIPOS>BOND
   1    1    2 1
   2    1    3 2
   3    1    4 1
   4    2    7 1
   5    2   27 1
   6    2   28 1
   7    4   29 1
   8    5    6 2
   9    5   14 1
  10    6    7 1
  11    6   16 1
  12    7    8 am
  13    8    9 1
  14    8   15 2
  15    9   10 ar
  16    9   14 ar
  17   10   11 ar
  18   10   30 1
  19   11   12 ar
  20   11   21 1
  21   12   13 ar
  22   12   31 1
  23   13   14 ar
  24   13   32 1
  25   16   17 1
  26   16   33 1
  27   16   34 1
  28   17   35 1
  29   17   36 1
  30   17   37 1
  31   18   19 1
  32   18   24 1
  33   18   25 1
  34   19   20 1
  35   19   38 1
  36   19   39 1
  37   20   21 1
  38   20   40 1
  39   20   41 1
  40   21   22 1
  41   22   23 1
  42   22   26 1
  43   22   42 1
  44   23   24 1
  45   23   43 1
  46   23   44 1
  47   24   45 1
  48   24   46 1
  49   25   26 1
  50   25   47 1
  51   25   48 1
  52   26   49 1
  53   26   50 1

#	End of record

