#	Name: ASD01028341
#	Creating user name:	WinNT
#	Creation time:	15. 06. 2019 18:57

#	Modifying user name:	WinNT
#	Modification time:	15. 06. 2019 18:57

#	Program:	/corina/corina34_cracker 3.40 0067  02.08.2006

@<TRIPOS>MOLECULE
ASD01028341
  45   49    0    0    0
SMALL
NO_CHARGES


@<TRIPOS>ATOM
   1 C1            -0.0171     1.4132     0.0098 C.ar    
   2 C2             0.0021    -0.0041     0.0020 C.ar    
   3 C3             1.2194     2.0970     0.0017 C.ar    
   4 N4             2.3326     1.3796    -0.0128 N.ar    
   5 C5             2.3036     0.0559    -0.0197 C.ar    
   6 N6             1.1872    -0.6325    -0.0127 N.ar    
   7 O7             1.2650     3.4491     0.0081 O.3     
   8 C8             2.5593     4.0546    -0.0010 C.3     
   9 C9             2.4123     5.5544     0.0080 C.2     
  10 N10            2.3447     6.3423     1.1033 N.pl3   
  11 C11            2.2149     7.6292     0.6373 C.2     
  12 N12            2.2103     7.5593    -0.6838 N.2     
  13 N13            2.3327     6.3296    -1.0447 N.2     
  14 N14            2.3803     6.0955     2.4772 N.2     
  15 C15            2.2904     7.0875     3.3352 C.2     
  16 C16            2.1559     8.4191     2.8882 C.2     
  17 C17            2.1191     8.6907     1.5570 C.2     
  18 C18            2.3304     6.8035     4.7909 C.ar    
  19 C19           -1.2084    -0.7072     0.0094 C.ar    
  20 C20            2.4624     5.4924     5.2442 C.ar    
  21 C21            2.4995     5.2340     6.5994 C.ar    
  22 C22            2.4058     6.2735     7.5071 C.ar    
  23 C23            2.2746     7.5769     7.0628 C.ar    
  24 C24            2.2417     7.8474     5.7098 C.ar    
  25 C25           -2.3971    -0.0097     0.0241 C.ar    
  26 C26           -2.4060     1.3884     0.0316 C.ar    
  27 C27           -1.2416     2.0939     0.0194 C.ar    
  28 O28           -3.5733    -0.6883     0.0308 O.3     
  29 C29           -4.7714     0.0904     0.0460 C.3     
  30 H30            3.2408    -0.4807    -0.0319 H       
  31 H31            3.1144     3.7387     0.8822 H       
  32 H32            3.0977     3.7477    -0.8976 H       
  33 H33            2.0825     9.2237     3.6049 H       
  34 H34            2.0162     9.7080     1.2091 H       
  35 H35           -1.2107    -1.7872     0.0033 H       
  36 H36            2.5353     4.6799     4.5364 H       
  37 H37            2.6015     4.2182     6.9519 H       
  38 H38            2.4349     6.0668     8.5668 H       
  39 H39            2.2015     8.3847     7.7759 H       
  40 H40            2.1393     8.8653     5.3639 H       
  41 H41           -3.3485     1.9154     0.0427 H       
  42 H42           -1.2617     3.1737     0.0254 H       
  43 H43           -5.6361    -0.5733     0.0500 H       
  44 H44           -4.7881     0.7141     0.9397 H       
  45 H45           -4.8041     0.7243    -0.8401 H       
@<TRIPOS>BOND
   1    1    2 ar
   2    1    3 ar
   3    1   27 ar
   4    2   19 ar
   5    2    6 ar
   6    3    4 ar
   7    3    7 1
   8    4    5 ar
   9    5    6 ar
  10    5   30 1
  11    7    8 1
  12    8    9 1
  13    8   31 1
  14    8   32 1
  15    9   10 1
  16    9   13 2
  17   10   11 1
  18   10   14 1
  19   11   12 2
  20   11   17 1
  21   12   13 1
  22   14   15 2
  23   15   16 1
  24   15   18 1
  25   16   17 2
  26   16   33 1
  27   17   34 1
  28   18   20 ar
  29   18   24 ar
  30   19   25 ar
  31   19   35 1
  32   20   21 ar
  33   20   36 1
  34   21   22 ar
  35   21   37 1
  36   22   23 ar
  37   22   38 1
  38   23   24 ar
  39   23   39 1
  40   24   40 1
  41   25   26 ar
  42   25   28 1
  43   26   27 ar
  44   26   41 1
  45   27   42 1
  46   28   29 1
  47   29   43 1
  48   29   44 1
  49   29   45 1

#	End of record

