#	Name: ASD04230110
#	Creating user name:	WinNT
#	Creation time:	15. 06. 2019 20:48

#	Modifying user name:	WinNT
#	Modification time:	15. 06. 2019 20:48

#	Program:	/corina/corina34_cracker 3.40 0067  02.08.2006

@<TRIPOS>MOLECULE
ASD04230110
  48   51    0    0    0
SMALL
NO_CHARGES


@<TRIPOS>ATOM
   1 C1             1.5361     4.6855     1.7215 C.ar    
   2 C2             2.5442     5.3833     2.3709 C.ar    
   3 C3             3.8008     4.8582     2.4692 C.ar    
   4 C4             4.0827     3.6075     1.9009 C.ar    
   5 C5             3.0565     2.8814     1.2697 C.ar    
   6 C6             1.7832     3.4391     1.1739 C.ar    
   7 C7             5.3936     3.0672     1.9622 C.2     
   8 C8             5.6630     1.9280     1.2153 C.2     
   9 C9             4.5672     1.3876     0.3902 C.2     
  10 O10            3.2980     1.6420     0.7794 O.3     
  11 C11            6.9880     1.2867     1.2457 C.2     
  12 N12            7.2189     0.1816     0.5095 N.am    
  13 O13            7.8743     1.7542     1.9352 O.2     
  14 C14            8.5060    -0.3625     0.4496 C.ar    
  15 C15            8.6754    -1.7391     0.3669 C.ar    
  16 C16            9.9457    -2.2805     0.3071 C.ar    
  17 C17           11.0532    -1.4569     0.3291 C.ar    
  18 C18           10.8929    -0.0743     0.4119 C.ar    
  19 C19            9.6135     0.4723     0.4670 C.ar    
  20 C20           12.0818     0.8121     0.4357 C.ar    
  21 O21            4.7980     0.7336    -0.6096 O.2     
  22 O22            0.7868     2.7605     0.5449 O.3     
  23 C23           12.1752     1.9067    -0.4216 C.ar    
  24 N24           13.2519     2.6743    -0.3700 N.ar    
  25 C25           14.2333     2.4167     0.4795 C.ar    
  26 N26           14.1878     1.3885     1.3114 N.ar    
  27 C27           13.1413     0.5739     1.3273 C.ar    
  28 O28           13.0998    -0.4771     2.1807 O.3     
  29 C29           14.2235    -0.6554     3.0454 C.3     
  30 O30           15.3167     3.2292     0.4977 O.3     
  31 C31           15.3208     4.3257    -0.4187 C.3     
  32 H32            0.5488     5.1169     1.6467 H       
  33 H33            2.3333     6.3507     2.8023 H       
  34 H34            4.5768     5.4056     2.9836 H       
  35 H35            6.1580     3.5279     2.5704 H       
  36 H36            6.4924    -0.2364     0.0212 H       
  37 H37            7.8121    -2.3879     0.3497 H       
  38 H38           10.0722    -3.3512     0.2433 H       
  39 H39           12.0443    -1.8836     0.2825 H       
  40 H40            9.4840     1.5426     0.5308 H       
  41 H41            0.2745     2.1840     1.1281 H       
  42 H42           11.3800     2.1254    -1.1188 H       
  43 H43           15.1231    -0.7994     2.4470 H       
  44 H44           14.3423     0.2274     3.6735 H       
  45 H45           14.0621    -1.5303     3.6752 H       
  46 H46           15.2560     3.9469    -1.4387 H       
  47 H47           14.4667     4.9718    -0.2160 H       
  48 H48           16.2430     4.8946    -0.3003 H       
@<TRIPOS>BOND
   1    1    2 ar
   2    1    6 ar
   3    1   32 1
   4    2    3 ar
   5    2   33 1
   6    3    4 ar
   7    3   34 1
   8    4    5 ar
   9    4    7 1
  10    5    6 ar
  11    5   10 1
  12    6   22 1
  13    7    8 2
  14    7   35 1
  15    8    9 1
  16    8   11 1
  17    9   10 1
  18    9   21 2
  19   11   12 am
  20   11   13 2
  21   12   14 1
  22   12   36 1
  23   14   15 ar
  24   14   19 ar
  25   15   16 ar
  26   15   37 1
  27   16   17 ar
  28   16   38 1
  29   17   18 ar
  30   17   39 1
  31   18   19 ar
  32   18   20 1
  33   19   40 1
  34   20   23 ar
  35   20   27 ar
  36   22   41 1
  37   23   24 ar
  38   23   42 1
  39   24   25 ar
  40   25   26 ar
  41   25   30 1
  42   26   27 ar
  43   27   28 1
  44   28   29 1
  45   29   43 1
  46   29   44 1
  47   29   45 1
  48   30   31 1
  49   31   46 1
  50   31   47 1
  51   31   48 1

#	End of record

