#	Name: ASD06352008
#	Creating user name:	WinNT
#	Creation time:	15. 06. 2019 21:06

#	Modifying user name:	WinNT
#	Modification time:	15. 06. 2019 21:06

#	Program:	/corina/corina34_cracker 3.40 0067  02.08.2006

@<TRIPOS>MOLECULE
ASD06352008
 154  154    0    0    0
SMALL
NO_CHARGES


@<TRIPOS>ATOM
   1 C1             0.3860     1.9778     0.7101 C.2     
   2 O2             0.5923     0.7828     0.7278 O.2     
   3 N3             2.6898     2.2556     1.4313 N.3     
   4 C4             1.5366     2.9430     0.8352 C.3     
   5 C5             1.9159     3.4669    -0.5513 C.3     
   6 C6             0.7148     4.1829    -1.1722 C.3     
   7 C7             3.0840     4.4469    -0.4243 C.3     
   8 C8            -3.1268     2.1740    -0.2821 C.2     
   9 O9            -3.1201     3.3762    -0.4420 O.2     
  10 N10           -0.8716     2.4426     0.5728 N.am    
  11 C11           -1.9894     1.5043     0.4451 C.3     
  12 C12           -2.4565     1.0750     1.8374 C.3     
  13 C13           -1.3512     0.2664     2.5194 C.3     
  14 C14           -2.7713     2.3161     2.6749 C.3     
  15 C15           -6.5755     1.5507    -0.7354 C.2     
  16 O16           -6.5096     0.6935     0.1200 O.2     
  17 N17           -4.1515     1.4370    -0.7546 N.am    
  18 C18           -5.3143     2.0976    -1.3528 C.3     
  19 C19           -5.3296     1.8366    -2.8603 C.3     
  20 C20           -4.0918     2.4271    -3.4850 C.2     
  21 O21           -3.2578     2.9644    -2.7874 O.2     
  22 N22           -3.9117     2.3583    -4.8189 N.am    
  23 C23          -10.1989     2.1621    -1.1491 C.2     
  24 O24          -10.0426     3.0073    -2.0047 O.2     
  25 N25           -7.7767     2.0142    -1.1339 N.am    
  26 C26           -9.0028     1.4825    -0.5337 C.3     
  27 C27          -13.7623     2.4415    -0.3826 C.2     
  28 O28          -13.7870     1.6019     0.4923 O.2     
  29 N29          -11.4424     1.8306    -0.7485 N.am    
  30 C30          -12.6051     2.4912    -1.3467 C.3     
  31 C31          -12.9893     1.7732    -2.6420 C.3     
  32 C32          -13.1937     0.2837    -2.3581 C.3     
  33 C33          -13.6982    -0.4122    -3.6239 C.3     
  34 C34          -11.8717     1.9473    -3.6724 C.3     
  35 C35          -16.7470     2.0275     0.0844 C.2     
  36 O36          -16.2894     1.1845    -0.6578 O.2     
  37 N37          -14.7696     3.3301    -0.4925 N.am    
  38 C38          -16.0084     3.3233     0.2993 C.3     
  39 C39          -16.8708     4.5062    -0.1890 C.3     
  40 C40          -16.3190     4.7735    -1.6143 C.3     
  41 C41          -14.8091     4.4735    -1.4223 C.3     
  42 C42          -20.1020     0.7530     0.7791 C.2     
  43 O43          -20.5083     1.8456     1.1139 O.2     
  44 N44          -17.9162     1.8053     0.7170 N.am    
  45 C45          -18.6342     0.5455     0.5080 C.3     
  46 C46          -18.0851    -0.5185     1.4605 C.3     
  47 C47          -16.5717    -0.6403     1.2713 C.3     
  48 O48          -18.3676    -0.1416     2.8096 O.3     
  49 C49          -23.0194    -1.3865     1.3032 C.2     
  50 O50          -22.3426    -2.3915     1.3559 O.2     
  51 N51          -20.9632    -0.2756     0.6496 N.am    
  52 C52          -22.3902    -0.0739     0.9131 C.3     
  53 C53          -23.0707     0.4633    -0.3476 C.3     
  54 C54          -22.5187     1.8527    -0.6725 C.3     
  55 C55          -23.1992     2.3899    -1.9332 C.3     
  56 N56          -22.6707     3.7203    -2.2443 N.pl3   
  57 C57          -23.1363     4.4056    -3.3414 C.2     
  58 N58          -24.0479     3.8716    -4.1048 N.2     
  59 N59          -22.6403     5.6542    -3.6334 N.pl3   
  60 C60          -26.4184    -2.6852     1.6537 C.2     
  61 O61          -26.9086    -1.6926     1.1583 O.2     
  62 N62          -24.3343    -1.4435     1.5935 N.am    
  63 C63          -24.9460    -2.7196     1.9727 C.3     
  64 C64          -24.7545    -2.9511     3.4729 C.3     
  65 C65          -23.2663    -2.8619     3.8168 C.3     
  66 O66          -25.4729    -1.9554     4.2041 O.3     
  67 C67          -29.3687    -3.0850     2.7509 C.2     
  68 O68          -28.7670    -2.6971     3.7243 O.2     
  69 N69          -27.1906    -3.7576     1.9188 N.am    
  70 C70          -28.6220    -3.7242     1.6087 C.3     
  71 C71          -29.1323    -5.1516     1.4010 C.3     
  72 C72          -28.4743    -5.7481     0.1835 C.2     
  73 O73          -27.6759    -5.0959    -0.4552 O.2     
  74 N74          -28.7732    -7.0065    -0.1955 N.am    
  75 O75          -30.7023    -2.9465     2.6871 O.3     
  76 H76            2.9816     1.4768     0.8599 H       
  77 H77            3.4533     2.8971     1.5853 H       
  78 H78            1.2428     3.7780     1.4712 H       
  79 H79            2.2097     2.6319    -1.1874 H       
  80 H80            0.9850     4.5562    -2.1600 H       
  81 H81           -0.1174     3.4848    -1.2627 H       
  82 H82            0.4210     5.0179    -0.5362 H       
  83 H83            3.9398     3.9367     0.0180 H       
  84 H84            3.3543     4.8201    -1.4121 H       
  85 H85            2.7902     5.2819     0.2118 H       
  86 H86           -1.0366     3.3983     0.5587 H       
  87 H87           -1.6656     0.6276    -0.1159 H       
  88 H88           -3.3526     0.4610     1.7467 H       
  89 H89           -0.4551     0.8803     2.6101 H       
  90 H90           -1.6840    -0.0395     3.5112 H       
  91 H91           -1.1269    -0.6178     1.9227 H       
  92 H92           -1.9003     2.9711     2.6953 H       
  93 H93           -3.6151     2.8473     2.2344 H       
  94 H94           -3.0228     2.0141     3.6916 H       
  95 H95           -4.1191     0.4692    -0.6987 H       
  96 H96           -5.2562     3.1707    -1.1705 H       
  97 H97           -5.3515     0.7622    -3.0428 H       
  98 H98           -6.2139     2.2979    -3.2999 H       
  99 H99           -4.5788     1.9286    -5.3768 H       
 100 H100          -3.1150     2.7384    -5.2210 H       
 101 H101          -7.8294     2.6998    -1.8181 H       
 102 H102          -8.9919     1.6685     0.5402 H       
 103 H103          -9.0609     0.4095    -0.7161 H       
 104 H104         -11.5674     1.1546    -0.0642 H       
 105 H105         -12.3596     3.5302    -1.5664 H       
 106 H106         -13.9135     2.1987    -3.0330 H       
 107 H107         -12.2469    -0.1611    -2.0517 H       
 108 H108         -13.9268     0.1632    -1.5605 H       
 109 H109         -14.6450     0.0326    -3.9302 H       
 110 H110         -12.9652    -0.2916    -4.4215 H       
 111 H111         -13.8439    -1.4733    -3.4216 H       
 112 H112         -12.1454     1.4357    -4.5952 H       
 113 H113         -11.7261     3.0084    -3.8746 H       
 114 H114         -10.9475     1.5217    -3.2814 H       
 115 H115         -15.7731     3.4448     1.3567 H       
 116 H116         -17.9232     4.2254    -0.2294 H       
 117 H117         -16.7273     5.3777     0.4497 H       
 118 H118         -16.7664     4.0945    -2.3402 H       
 119 H119         -16.4752     5.8122    -1.9053 H       
 120 H120         -14.3014     5.3341    -0.9869 H       
 121 H121         -14.3522     4.2041    -2.3745 H       
 122 H122         -18.2822     2.4795     1.3106 H       
 123 H123         -18.4980     0.2162    -0.5220 H       
 124 H124         -18.5565    -1.4773     1.2448 H       
 125 H125         -16.1003     0.3185     1.4870 H       
 126 H126         -16.1805    -1.3983     1.9498 H       
 127 H127         -16.3562    -0.9278     0.2422 H       
 128 H128         -18.0474    -0.7719     3.4694 H       
 129 H129         -20.6383    -1.1494     0.3818 H       
 130 H130         -22.5119     0.6430     1.7252 H       
 131 H131         -22.8737    -0.2101    -1.1817 H       
 132 H132         -24.1457     0.5294    -0.1800 H       
 133 H133         -22.7157     2.5261     0.1617 H       
 134 H134         -21.4437     1.7866    -0.8400 H       
 135 H135         -23.0023     1.7165    -2.7673 H       
 136 H136         -24.2742     2.4560    -1.7656 H       
 137 H137         -21.9923     4.1177    -1.6762 H       
 138 H138         -24.3764     4.3552    -4.8789 H       
 139 H139         -21.9618     6.0516    -3.0653 H       
 140 H140         -22.9687     6.1377    -4.4075 H       
 141 H141         -24.8756    -0.6397     1.5514 H       
 142 H142         -24.4726    -3.5289     1.4168 H       
 143 H143         -25.1303    -3.9390     3.7390 H       
 144 H144         -22.8905    -1.8739     3.5508 H       
 145 H145         -23.1299    -3.0268     4.8856 H       
 146 H146         -22.7184    -3.6213     3.2591 H       
 147 H147         -25.1905    -1.0497     4.0168 H       
 148 H148         -26.7986    -4.5515     2.3150 H       
 149 H149         -28.7834    -3.1448     0.6996 H       
 150 H150         -28.8912    -5.7546     2.2765 H       
 151 H151         -30.2127    -5.1340     1.2583 H       
 152 H152         -29.4117    -7.5282     0.3154 H       
 153 H153         -28.3497    -7.3905    -0.9792 H       
 154 H154         -31.1373    -2.5305     3.4440 H       
@<TRIPOS>BOND
   1    1    2 2
   2    1    4 1
   3    1   10 am
   4    3    4 1
   5    3   76 1
   6    3   77 1
   7    4    5 1
   8    4   78 1
   9    5    6 1
  10    5    7 1
  11    5   79 1
  12    6   80 1
  13    6   81 1
  14    6   82 1
  15    7   83 1
  16    7   84 1
  17    7   85 1
  18    8    9 2
  19    8   11 1
  20    8   17 am
  21   10   11 1
  22   10   86 1
  23   11   12 1
  24   11   87 1
  25   12   13 1
  26   12   14 1
  27   12   88 1
  28   13   89 1
  29   13   90 1
  30   13   91 1
  31   14   92 1
  32   14   93 1
  33   14   94 1
  34   15   16 2
  35   15   18 1
  36   15   25 am
  37   17   18 1
  38   17   95 1
  39   18   19 1
  40   18   96 1
  41   19   20 1
  42   19   97 1
  43   19   98 1
  44   20   21 2
  45   20   22 am
  46   22   99 1
  47   22  100 1
  48   23   24 2
  49   23   26 1
  50   23   29 am
  51   25   26 1
  52   25  101 1
  53   26  102 1
  54   26  103 1
  55   27   28 2
  56   27   30 1
  57   27   37 am
  58   29   30 1
  59   29  104 1
  60   30   31 1
  61   30  105 1
  62   31   32 1
  63   31   34 1
  64   31  106 1
  65   32   33 1
  66   32  107 1
  67   32  108 1
  68   33  109 1
  69   33  110 1
  70   33  111 1
  71   34  112 1
  72   34  113 1
  73   34  114 1
  74   35   36 2
  75   35   44 am
  76   35   38 1
  77   37   38 1
  78   37   41 1
  79   38   39 1
  80   38  115 1
  81   39   40 1
  82   39  116 1
  83   39  117 1
  84   40   41 1
  85   40  118 1
  86   40  119 1
  87   41  120 1
  88   41  121 1
  89   42   43 2
  90   42   45 1
  91   42   51 am
  92   44   45 1
  93   44  122 1
  94   45   46 1
  95   45  123 1
  96   46   47 1
  97   46   48 1
  98   46  124 1
  99   47  125 1
 100   47  126 1
 101   47  127 1
 102   48  128 1
 103   49   50 2
 104   49   52 1
 105   49   62 am
 106   51   52 1
 107   51  129 1
 108   52   53 1
 109   52  130 1
 110   53   54 1
 111   53  131 1
 112   53  132 1
 113   54   55 1
 114   54  133 1
 115   54  134 1
 116   55   56 1
 117   55  135 1
 118   55  136 1
 119   56   57 1
 120   56  137 1
 121   57   58 2
 122   57   59 1
 123   58  138 1
 124   59  139 1
 125   59  140 1
 126   60   61 2
 127   60   63 1
 128   60   69 am
 129   62   63 1
 130   62  141 1
 131   63   64 1
 132   63  142 1
 133   64   65 1
 134   64   66 1
 135   64  143 1
 136   65  144 1
 137   65  145 1
 138   65  146 1
 139   66  147 1
 140   67   68 2
 141   67   70 1
 142   67   75 1
 143   69   70 1
 144   69  148 1
 145   70   71 1
 146   70  149 1
 147   71   72 1
 148   71  150 1
 149   71  151 1
 150   72   73 2
 151   72   74 am
 152   74  152 1
 153   74  153 1
 154   75  154 1

#	End of record

