#	Name: ASD01120243
#	Creating user name:	WinNT
#	Creation time:	15. 06. 2019 18:59

#	Modifying user name:	WinNT
#	Modification time:	15. 06. 2019 18:59

#	Program:	/corina/corina34_cracker 3.40 0067  02.08.2006

@<TRIPOS>MOLECULE
ASD01120243
  56   58    0    0    0
SMALL
NO_CHARGES


@<TRIPOS>ATOM
   1 C1            -0.0167     1.3791     0.0096 C.ar    
   2 C2             0.0021    -0.0041     0.0020 C.ar    
   3 C3            -1.1857    -0.7112     0.0100 C.ar    
   4 C4            -2.3919    -0.0365     0.0257 C.ar    
   5 C5            -2.4113     1.3460     0.0333 C.ar    
   6 C6            -1.2245     2.0540     0.0306 C.ar    
   7 S7            -3.9495     2.2052     0.0532 S.o2    
   8 N8            -4.3617     2.4358     1.6404 N.am    
   9 C9            -3.6007     3.2226     2.4268 C.2     
  10 N10           -3.9362     3.4102     3.7186 N.am    
  11 O11           -3.6957     3.4949    -0.4869 O.2     
  12 O12           -4.9146     1.3128    -0.4865 O.2     
  13 O13           -2.6116     3.7631     1.9709 O.2     
  14 C14            3.2020     2.1663     9.3967 C.ar    
  15 C15            4.4297     2.6999     9.0481 C.ar    
  16 C16            4.7015     4.0313     9.3018 C.ar    
  17 C17            3.7468     4.8293     9.9036 C.ar    
  18 C18            2.5195     4.2965    10.2522 C.ar    
  19 C19            2.2447     2.9670     9.9944 C.ar    
  20 S20            1.3031     5.3146    11.0194 S.o2    
  21 N21            0.3922     5.9858     9.8102 N.am    
  22 C22           -0.3688     5.1990     9.0238 C.2     
  23 N23           -1.1101     5.7453     8.0397 N.am    
  24 O24            0.4402     4.4401    11.7335 O.2     
  25 O25            2.0060     6.3858    11.6340 O.2     
  26 O26           -0.3864     3.9964     9.2022 O.2     
  27 Cl27           2.8597     0.4945     9.0779 Cl      
  28 Cl28           1.4746     2.2678     0.0002 Cl      
  29 C29           -1.9372     4.8901     7.1849 C.3     
  30 C30           -3.0959     5.7091     6.6126 C.3     
  31 C31           -3.9597     4.8159     5.7199 C.3     
  32 C32           -3.1091     4.2655     4.5734 C.3     
  33 C33           -1.9504     3.4465     5.1457 C.3     
  34 C34           -1.0866     4.3396     6.0385 C.3     
  35 H35            0.9445    -0.5314    -0.0105 H       
  36 H36           -1.1712    -1.7911     0.0037 H       
  37 H37           -3.3197    -0.5894     0.0316 H       
  38 H38           -1.2398     3.1339     0.0365 H       
  39 H39           -5.1507     2.0046     2.0041 H       
  40 H40           -4.7253     2.9790     4.0823 H       
  41 H41            5.1759     2.0764     8.5782 H       
  42 H42            5.6601     4.4480     9.0300 H       
  43 H43            3.9597     5.8694    10.1020 H       
  44 H44            1.2860     2.5509    10.2667 H       
  45 H45            0.4063     6.9452     9.6679 H       
  46 H46           -1.0960     6.7047     7.8974 H       
  47 H47           -2.3332     4.0624     7.7734 H       
  48 H48           -3.7019     6.1012     7.4293 H       
  49 H49           -2.7000     6.5367     6.0241 H       
  50 H50           -4.3557     3.9882     6.3083 H       
  51 H51           -4.7852     5.3994     5.3121 H       
  52 H52           -2.7131     5.0931     3.9849 H       
  53 H53           -2.3463     2.6188     5.7342 H       
  54 H54           -1.3444     3.0543     4.3290 H       
  55 H55           -0.6906     5.1673     5.4500 H       
  56 H56           -0.2611     3.7561     6.4462 H       
@<TRIPOS>BOND
   1    1    2 ar
   2    1   28 1
   3    1    6 ar
   4    2    3 ar
   5    2   35 1
   6    3    4 ar
   7    3   36 1
   8    4    5 ar
   9    4   37 1
  10    5    6 ar
  11    5    7 1
  12    6   38 1
  13    7    8 am
  14    7   11 2
  15    7   12 2
  16    8    9 am
  17    8   39 1
  18    9   10 am
  19    9   13 2
  20   10   32 1
  21   10   40 1
  22   14   15 ar
  23   14   27 1
  24   14   19 ar
  25   15   16 ar
  26   15   41 1
  27   16   17 ar
  28   16   42 1
  29   17   18 ar
  30   17   43 1
  31   18   19 ar
  32   18   20 1
  33   19   44 1
  34   20   21 am
  35   20   24 2
  36   20   25 2
  37   21   22 am
  38   21   45 1
  39   22   23 am
  40   22   26 2
  41   23   29 1
  42   23   46 1
  43   29   30 1
  44   29   34 1
  45   29   47 1
  46   30   31 1
  47   30   48 1
  48   30   49 1
  49   31   32 1
  50   31   50 1
  51   31   51 1
  52   32   33 1
  53   32   52 1
  54   33   34 1
  55   33   53 1
  56   33   54 1
  57   34   55 1
  58   34   56 1

#	End of record

