#	Name: ASD01815232
#	Creating user name:	WinNT
#	Creation time:	15. 06. 2019 19:33

#	Modifying user name:	WinNT
#	Modification time:	15. 06. 2019 19:33

#	Program:	/corina/corina34_cracker 3.40 0067  02.08.2006

@<TRIPOS>MOLECULE
ASD01815232
  51   54    0    0    0
SMALL
NO_CHARGES


@<TRIPOS>ATOM
   1 C1            -2.2544    -4.0595     0.1666 C.2     
   2 C2            -1.0774    -3.1896     0.0321 C.2     
   3 C3             0.1966    -3.7168     0.1018 C.2     
   4 O4            -2.1107    -5.2539     0.3408 O.2     
   5 O5            -3.4932    -3.5319     0.1024 O.3     
   6 C6            -1.2372    -1.7428    -0.1852 C.2     
   7 C7            -0.0061    -0.9402    -0.3102 C.ar    
   8 C8             1.2348    -1.5920    -0.2163 C.ar    
   9 C9             2.4061    -0.8443    -0.3329 C.ar    
  10 C10            2.3354     0.5181    -0.5377 C.ar    
  11 C11            1.1078     1.1578    -0.6294 C.ar    
  12 C12           -0.0613     0.4381    -0.5171 C.ar    
  13 O13           -2.3400    -1.2297    -0.2591 O.2     
  14 N14            1.2912    -2.9551    -0.0164 N.pl3   
  15 C15            2.6051    -3.5972     0.0708 C.3     
  16 C16            3.1293    -3.4794     1.4788 C.ar    
  17 C17            2.9136    -4.5115     2.3740 C.ar    
  18 C18            3.3968    -4.3991     3.6661 C.ar    
  19 C19            4.0893    -3.2362     4.0162 C.ar    
  20 C20            4.2648    -2.2416     3.0560 C.ar    
  21 N21            3.7911    -2.3961     1.8365 N.ar    
  22 C22            4.6279    -3.0636     5.3871 C.ar    
  23 C23            5.9607    -2.6787     5.5760 C.ar    
  24 C24            6.4550    -2.5195     6.8626 C.ar    
  25 C25            5.6337    -2.7407     7.9515 C.ar    
  26 C26            4.3163    -3.1215     7.7670 C.ar    
  27 C27            3.8089    -3.2779     6.4926 C.ar    
  28 S28            8.3924    -2.8609     4.5509 S.o2    
  29 O29            8.8833    -2.5921     3.2448 O.2     
  30 O30            8.8809    -2.1473     5.6785 O.2     
  31 N31            6.7882    -2.4568     4.4755 N.am    
  32 C32            8.3948    -4.6454     4.8770 C.3     
  33 F33            3.6088    -1.4534    -0.2448 F       
  34 H34            0.3142    -4.7791     0.2571 H       
  35 H35           -4.2363    -4.1436     0.1962 H       
  36 H36            3.2454     1.0929    -0.6274 H       
  37 H37            1.0685     2.2251    -0.7893 H       
  38 H38           -1.0158     0.9383    -0.5896 H       
  39 H39            2.5134    -4.6501    -0.1958 H       
  40 H40            3.2953    -3.1072    -0.6160 H       
  41 H41            2.3737    -5.3954     2.0682 H       
  42 H42            3.2425    -5.1895     4.3857 H       
  43 H43            4.7978    -1.3381     3.3127 H       
  44 H44            7.4825    -2.2227     7.0131 H       
  45 H45            6.0220    -2.6161     8.9515 H       
  46 H46            3.6811    -3.2928     8.6234 H       
  47 H47            2.7786    -3.5706     6.3532 H       
  48 H48            6.4241    -2.0658     3.6659 H       
  49 H49            9.4230    -5.0013     4.9431 H       
  50 H50            7.8806    -4.8436     5.8175 H       
  51 H51            7.8823    -5.1636     4.0665 H       
@<TRIPOS>BOND
   1    1    2 1
   2    1    4 2
   3    1    5 1
   4    2    3 2
   5    2    6 1
   6    3   14 1
   7    3   34 1
   8    5   35 1
   9    6    7 1
  10    6   13 2
  11    7    8 ar
  12    7   12 ar
  13    8    9 ar
  14    8   14 1
  15    9   10 ar
  16    9   33 1
  17   10   11 ar
  18   10   36 1
  19   11   12 ar
  20   11   37 1
  21   12   38 1
  22   14   15 1
  23   15   16 1
  24   15   39 1
  25   15   40 1
  26   16   17 ar
  27   16   21 ar
  28   17   18 ar
  29   17   41 1
  30   18   19 ar
  31   18   42 1
  32   19   20 ar
  33   19   22 1
  34   20   21 ar
  35   20   43 1
  36   22   23 ar
  37   22   27 ar
  38   23   24 ar
  39   23   31 1
  40   24   25 ar
  41   24   44 1
  42   25   26 ar
  43   25   45 1
  44   26   27 ar
  45   26   46 1
  46   27   47 1
  47   28   29 2
  48   28   30 2
  49   28   31 am
  50   28   32 1
  51   31   48 1
  52   32   49 1
  53   32   50 1
  54   32   51 1

#	End of record

