#	Name: ASD06560008
#	Creating user name:	WinNT
#	Creation time:	15. 06. 2019 21:06

#	Modifying user name:	WinNT
#	Modification time:	15. 06. 2019 21:06

#	Program:	/corina/corina34_cracker 3.40 0067  02.08.2006

@<TRIPOS>MOLECULE
ASD06560008
  43   45    0    0    0
SMALL
NO_CHARGES


@<TRIPOS>ATOM
   1 C1            -0.0188     1.5329     0.0105 C.3     
   2 C2             0.0021    -0.0041     0.0020 C.3     
   3 C3             0.9750    -0.4807    -1.0802 C.3     
   4 C4             0.6064     0.1557    -2.4234 C.3     
   5 C5             0.5446     1.6819    -2.2506 C.3     
   6 C6             1.8189     2.1241    -1.4949 C.3     
   7 C7             1.4466     2.0257    -0.0009 C.3     
   8 N8            -0.5627     1.9735    -1.3017 N.3     
   9 C9            -1.3798    -0.5260    -0.2963 C.2     
  10 O10           -2.2900     0.2464    -0.4834 O.2     
  11 O11           -1.5997    -1.8489    -0.3541 O.3     
  12 C12           -0.8782     3.4081    -1.2858 C.3     
  13 O13            0.9003    -1.9263    -1.1941 O.3     
  14 C14            2.0202    -2.5681    -1.5796 C.2     
  15 C15            2.0184    -4.0390    -1.7170 C.ar    
  16 C16            3.1775    -4.7074    -2.1163 C.ar    
  17 C17            3.1690    -6.0811    -2.2422 C.ar    
  18 C18            2.0153    -6.7964    -1.9742 C.ar    
  19 C19            0.8632    -6.1404    -1.5780 C.ar    
  20 C20            0.8594    -4.7676    -1.4426 C.ar    
  21 O21            3.0315    -1.9374    -1.8141 O.2     
  22 C22           -2.9552    -2.2797    -0.6460 C.3     
  23 H23           -0.5811     1.9312     0.8550 H       
  24 H24            0.3303    -0.3701     0.9749 H       
  25 H25            1.9900    -0.1912    -0.8082 H       
  26 H26            1.3623    -0.0972    -3.1669 H       
  27 H27           -0.3660    -0.2145    -2.7483 H       
  28 H28            0.4302     2.1986    -3.2034 H       
  29 H29            2.6476     1.4543    -1.7243 H       
  30 H30            2.0768     3.1508    -1.7547 H       
  31 H31            1.5214     3.0040     0.4739 H       
  32 H32            2.0923     1.3075     0.5044 H       
  33 H33            0.0271     3.9769    -1.0739 H       
  34 H34           -1.2741     3.7038    -2.2573 H       
  35 H35           -1.6218     3.6081    -0.5143 H       
  36 H36            4.0784    -4.1502    -2.3265 H       
  37 H37            4.0648    -6.5994    -2.5510 H       
  38 H38            2.0139    -7.8717    -2.0750 H       
  39 H39           -0.0339    -6.7048    -1.3704 H       
  40 H40           -0.0392    -4.2572    -1.1289 H       
  41 H41           -3.6295    -1.9042     0.1236 H       
  42 H42           -3.2592    -1.8896    -1.6173 H       
  43 H43           -2.9944    -3.3689    -0.6635 H       
@<TRIPOS>BOND
   1    1    2 1
   2    1    7 1
   3    1    8 1
   4    1   23 1
   5    2    3 1
   6    2    9 1
   7    2   24 1
   8    3    4 1
   9    3   13 1
  10    3   25 1
  11    4    5 1
  12    4   26 1
  13    4   27 1
  14    5    6 1
  15    5    8 1
  16    5   28 1
  17    6    7 1
  18    6   29 1
  19    6   30 1
  20    7   31 1
  21    7   32 1
  22    8   12 1
  23    9   10 2
  24    9   11 1
  25   11   22 1
  26   12   33 1
  27   12   34 1
  28   12   35 1
  29   13   14 1
  30   14   15 1
  31   14   21 2
  32   15   16 ar
  33   15   20 ar
  34   16   17 ar
  35   16   36 1
  36   17   18 ar
  37   17   37 1
  38   18   19 ar
  39   18   38 1
  40   19   20 ar
  41   19   39 1
  42   20   40 1
  43   22   41 1
  44   22   42 1
  45   22   43 1

#	End of record

