#	Name: ASD08178533
#	Creating user name:	WinNT
#	Creation time:	15. 06. 2019 21:19

#	Modifying user name:	WinNT
#	Modification time:	15. 06. 2019 21:19

#	Program:	/corina/corina34_cracker 3.40 0067  02.08.2006

@<TRIPOS>MOLECULE
ASD08178533
  29   30    0    0    0
SMALL
NO_CHARGES


@<TRIPOS>ATOM
   1 C1             2.3985     1.3275    -0.0132 C.ar    
   2 C2             2.3209    -0.0534    -0.0153 C.ar    
   3 C3             1.2057     2.0513     0.0050 C.ar    
   4 N4             0.0448     1.4131     0.0197 N.ar    
   5 N5            -0.0319     0.1319     0.0178 N.ar    
   6 C6             1.0488    -0.6394     0.0010 C.ar    
   7 C7             0.9142    -2.0651    -0.0009 C.1     
   8 N8             1.2355     3.4447     0.0083 N.am    
   9 C9             0.0864     4.1435    -0.0792 C.2     
  10 O10           -0.9642     3.5636    -0.2548 O.2     
  11 C11            0.1069     5.6456     0.0413 C.3     
  12 C12           -1.2962     6.1793    -0.0906 C.ar    
  13 C13           -2.0865     6.3311     1.0334 C.ar    
  14 C14           -1.7911     6.5224    -1.3349 C.ar    
  15 C15           -3.0782     7.0120    -1.4558 C.ar    
  16 C16           -3.8705     7.1581    -0.3326 C.ar    
  17 C17           -3.3735     6.8207     0.9125 C.ar    
  18 C18            0.8038    -3.2339    -0.0025 C.1     
  19 H19            3.3541     1.8307    -0.0209 H       
  20 H20            3.2136    -0.6611    -0.0295 H       
  21 H21            2.0833     3.9115     0.0735 H       
  22 H22            0.5127     5.9266     1.0131 H       
  23 H23            0.7308     6.0649    -0.7480 H       
  24 H24           -1.6984     6.0669     2.0061 H       
  25 H25           -1.1720     6.4083    -2.2124 H       
  26 H26           -3.4645     7.2807    -2.4279 H       
  27 H27           -4.8759     7.5409    -0.4270 H       
  28 H28           -3.9926     6.9348     1.7901 H       
  29 H29            0.7051    -4.2793    -0.0038 H       
@<TRIPOS>BOND
   1    1    2 ar
   2    1    3 ar
   3    1   19 1
   4    2    6 ar
   5    2   20 1
   6    3    4 ar
   7    3    8 1
   8    4    5 ar
   9    5    6 ar
  10    6    7 1
  11    7   18 3
  12    8    9 am
  13    8   21 1
  14    9   10 2
  15    9   11 1
  16   11   12 1
  17   11   22 1
  18   11   23 1
  19   12   13 ar
  20   12   14 ar
  21   13   17 ar
  22   13   24 1
  23   14   15 ar
  24   14   25 1
  25   15   16 ar
  26   15   26 1
  27   16   17 ar
  28   16   27 1
  29   17   28 1
  30   18   29 1

#	End of record

