#	Name: ASD08178061
#	Creating user name:	WinNT
#	Creation time:	15. 06. 2019 21:18

#	Modifying user name:	WinNT
#	Modification time:	15. 06. 2019 21:18

#	Program:	/corina/corina34_cracker 3.40 0067  02.08.2006

@<TRIPOS>MOLECULE
ASD08178061
  53   56    0    0    0
SMALL
NO_CHARGES


@<TRIPOS>ATOM
   1 N1            -0.0150     1.2583     0.0090 N.2     
   2 N2             0.0021    -0.0041     0.0020 N.2     
   3 C3             1.1271     1.8769     0.0014 C.2     
   4 S4             2.3826     0.7116    -0.0169 S.3     
   5 C5             1.1681    -0.5677    -0.0121 C.2     
   6 N6             1.3017     3.2566     0.0067 N.am    
   7 C7             0.2284     4.0717     0.0214 C.2     
   8 O8            -0.8897     3.6019     0.0299 O.2     
   9 C9             1.4387    -2.0502    -0.0227 C.3     
  10 C10            1.5165    -2.5442    -1.4687 C.3     
  11 C11            1.8986    -4.7206    -3.2516 C.3     
  12 C12            2.1699    -6.2152    -3.4347 C.3     
  13 C13            2.2167    -6.5408    -4.9053 C.2     
  14 N14            3.2694    -6.5184    -5.6596 N.2     
  15 S15            0.8491    -7.0282    -5.9071 S.3     
  16 C16            1.9000    -7.1354    -7.2557 C.2     
  17 N17            3.1017    -6.8250    -6.8728 N.2     
  18 N18            1.5289    -7.4992    -8.5457 N.am    
  19 C19            2.4537    -7.5464    -9.5250 C.2     
  20 O20            3.6096    -7.2716    -9.2812 O.2     
  21 C21            2.0516    -7.9407   -10.9228 C.3     
  22 C22            0.4176     5.5667     0.0272 C.3     
  23 N23           -0.8913     6.2246     0.0433 N.pl3   
  24 N24            3.2285    -7.9156   -11.7949 N.pl3   
  25 S25            1.8422    -4.3286    -1.4814 S.3     
  26 N26           -1.9286     6.0185    -0.8752 N.2     
  27 C27           -2.9350     6.7815    -0.5334 C.2     
  28 C28           -2.5714     7.4970     0.6122 C.2     
  29 C29           -1.3127     7.1318     0.9491 C.2     
  30 C30            3.6740    -8.9366   -12.5566 C.2     
  31 C31            4.7806    -8.5119   -13.2093 C.2     
  32 C32            5.0196    -7.1860   -12.8336 C.2     
  33 N33            4.0866    -6.8257   -11.9900 N.2     
  34 H34            2.1959     3.6323    -0.0001 H       
  35 H35            2.3843    -2.2506     0.4811 H       
  36 H36            0.6334    -2.5702     0.4961 H       
  37 H37            0.5709    -2.3438    -1.9724 H       
  38 H38            2.3218    -2.0242    -1.9874 H       
  39 H39            2.6943    -4.1461    -3.7258 H       
  40 H40            0.9434    -4.4658    -3.7108 H       
  41 H41            3.1250    -6.4700    -2.9755 H       
  42 H42            1.3741    -6.7896    -2.9605 H       
  43 H43            0.6045    -7.7190    -8.7407 H       
  44 H44            1.6303    -8.9459   -10.9098 H       
  45 H45            1.3064    -7.2392   -11.2980 H       
  46 H46            0.9817     5.8582     0.9132 H       
  47 H47            0.9643     5.8672    -0.8667 H       
  48 H48           -3.8827     6.8476    -1.0470 H       
  49 H49           -3.1877     8.2117     1.1373 H       
  50 H50           -0.7446     7.5048     1.7885 H       
  51 H51            3.2275    -9.9171   -12.6316 H       
  52 H52            5.3746    -9.0940   -13.8983 H       
  53 H53            5.8314    -6.5653   -13.1830 H       
@<TRIPOS>BOND
   1    1    2 1
   2    1    3 2
   3    2    5 2
   4    3    4 1
   5    3    6 1
   6    4    5 1
   7    5    9 1
   8    6    7 am
   9    6   34 1
  10    7    8 2
  11    7   22 1
  12    9   10 1
  13    9   35 1
  14    9   36 1
  15   10   25 1
  16   10   37 1
  17   10   38 1
  18   11   12 1
  19   11   25 1
  20   11   39 1
  21   11   40 1
  22   12   13 1
  23   12   41 1
  24   12   42 1
  25   13   14 2
  26   13   15 1
  27   14   17 1
  28   15   16 1
  29   16   17 2
  30   16   18 1
  31   18   19 am
  32   18   43 1
  33   19   20 2
  34   19   21 1
  35   21   24 1
  36   21   44 1
  37   21   45 1
  38   22   23 1
  39   22   46 1
  40   22   47 1
  41   23   26 1
  42   23   29 1
  43   24   30 1
  44   24   33 1
  45   26   27 2
  46   27   28 1
  47   27   48 1
  48   28   29 2
  49   28   49 1
  50   29   50 1
  51   30   31 2
  52   30   51 1
  53   31   32 1
  54   31   52 1
  55   32   33 2
  56   32   53 1

#	End of record

