#	Name: ASD09740680
#	Creating user name:	WinNT
#	Creation time:	15. 06. 2019 21:23

#	Modifying user name:	WinNT
#	Modification time:	15. 06. 2019 21:23

#	Program:	/corina/corina34_cracker 3.40 0067  02.08.2006

@<TRIPOS>MOLECULE
ASD09740680
  76   79    0    0    0
SMALL
NO_CHARGES


@<TRIPOS>ATOM
   1 C1             0.0018    -0.0037    -0.0175 C.1     
   2 C2            -0.0174     1.4281     0.0015 C.ar    
   3 C3             1.1867     2.1485     0.0035 C.ar    
   4 C4             1.1651     3.5356     0.0225 C.ar    
   5 C5            -0.0361     4.2112     0.0394 C.ar    
   6 C6            -1.2420     3.5038     0.0372 C.ar    
   7 C7            -1.2324     2.1112     0.0123 C.ar    
   8 N8             0.0170    -1.1395    -0.0326 N.1     
   9 O9             2.3719     1.4887    -0.0126 O.3     
  10 C10            3.5546     2.2821    -0.1302 C.3     
  11 C11            3.9807     2.7707     1.2557 C.3     
  12 C12            4.6758     1.4389    -0.7407 C.3     
  13 S13           -2.7039     5.9859     0.0808 S.3     
  14 C14           -2.5267     4.2336     0.0554 C.2     
  15 N15           -3.7080     3.6823     0.0551 N.2     
  16 C16           -4.7430     4.4847     0.0728 C.2     
  17 C17           -4.4572     5.8049     0.0893 C.2     
  18 C18           -5.9047     9.9414     2.1645 C.3     
  19 C19           -4.9354     9.1829     3.0959 C.3     
  20 C20           -4.2963     8.1536     2.1397 C.3     
  21 C21           -5.3242     7.9341     1.0506 C.ar    
  22 C22           -5.4430     6.9059     0.1103 C.ar    
  23 C23           -6.4927     6.9208    -0.8078 C.ar    
  24 C24           -7.4095     7.9516    -0.7833 C.ar    
  25 C25           -7.2874     8.9658     0.1477 C.ar    
  26 C26           -6.2469     8.9592     1.0643 C.ar    
  27 N27           -7.1175    10.3288     2.8973 N.3     
  28 C28           -7.7548    11.4991     2.2791 C.3     
  29 C29           -9.0115    11.8718     3.0683 C.3     
  30 O30           -8.6410    12.2933     4.3825 O.3     
  31 Si31          -9.9037    12.7185     5.3233 Si      
  32 C32          -10.8203    14.1333     4.5303 C.3     
  33 C33          -11.0523    11.2644     5.5157 C.3     
  34 C34           -9.2806    13.2436     6.9987 C.3     
  35 C35           -8.3373    14.4378     6.8408 C.3     
  36 C36          -10.4650    13.6425     7.8813 C.3     
  37 C37           -8.5278    12.0817     7.6500 C.3     
  38 H38            2.0931     4.0881     0.0243 H       
  39 H39           -0.0458     5.2911     0.0548 H       
  40 H40           -2.1627     1.5628     0.0064 H       
  41 H41            3.3543     3.1399    -0.7721 H       
  42 H42            4.8828     3.3759     1.1661 H       
  43 H43            3.1819     3.3714     1.6907 H       
  44 H44            4.1810     1.9128     1.8977 H       
  45 H45            4.3722     1.0909    -1.7280 H       
  46 H46            5.5779     2.0441    -0.8304 H       
  47 H47            4.8761     0.5811    -0.0988 H       
  48 H48           -5.7578     4.1153     0.0736 H       
  49 H49           -5.4166    10.8220     1.7469 H       
  50 H50           -4.1803     9.8566     3.5010 H       
  51 H51           -5.4796     8.6823     3.8968 H       
  52 H52           -3.3749     8.5525     1.7154 H       
  53 H53           -4.0981     7.2201     2.6664 H       
  54 H54           -6.5874     6.1286    -1.5357 H       
  55 H55           -8.2235     7.9662    -1.4929 H       
  56 H56           -8.0080     9.7702     0.1612 H       
  57 H57           -7.7637     9.5566     2.9609 H       
  58 H58           -7.0590    12.3381     2.2865 H       
  59 H59           -8.0283    11.2630     1.2507 H       
  60 H60           -9.5325    12.6831     2.5599 H       
  61 H61           -9.6682    11.0046     3.1364 H       
  62 H62          -11.1848    13.8261     3.5501 H       
  63 H63          -11.6641    14.4175     5.1590 H       
  64 H64          -10.1482    14.9841     4.4178 H       
  65 H65          -10.5160    10.4366     5.9797 H       
  66 H66          -11.8961    11.5486     6.1444 H       
  67 H67          -11.4168    10.9572     4.5354 H       
  68 H68           -8.8736    15.2655     6.3768 H       
  69 H69           -7.9728    14.7450     7.8210 H       
  70 H70           -7.4935    14.1536     6.2120 H       
  71 H71          -11.1371    12.7917     7.9938 H       
  72 H72          -10.1005    13.9497     8.8615 H       
  73 H73          -11.0013    14.4703     7.4173 H       
  74 H74           -7.6840    11.7975     7.0213 H       
  75 H75           -8.1633    12.3889     8.6303 H       
  76 H76           -9.1999    11.2309     7.7626 H       
@<TRIPOS>BOND
   1    1    2 1
   2    1    8 3
   3    2    3 ar
   4    2    7 ar
   5    3    4 ar
   6    3    9 1
   7    4    5 ar
   8    4   38 1
   9    5    6 ar
  10    5   39 1
  11    6    7 ar
  12    6   14 1
  13    7   40 1
  14    9   10 1
  15   10   11 1
  16   10   12 1
  17   10   41 1
  18   11   42 1
  19   11   43 1
  20   11   44 1
  21   12   45 1
  22   12   46 1
  23   12   47 1
  24   13   14 1
  25   13   17 1
  26   14   15 2
  27   15   16 1
  28   16   17 2
  29   16   48 1
  30   17   22 1
  31   18   19 1
  32   18   26 1
  33   18   27 1
  34   18   49 1
  35   19   20 1
  36   19   50 1
  37   19   51 1
  38   20   21 1
  39   20   52 1
  40   20   53 1
  41   21   22 ar
  42   21   26 ar
  43   22   23 ar
  44   23   24 ar
  45   23   54 1
  46   24   25 ar
  47   24   55 1
  48   25   26 ar
  49   25   56 1
  50   27   28 1
  51   27   57 1
  52   28   29 1
  53   28   58 1
  54   28   59 1
  55   29   30 1
  56   29   60 1
  57   29   61 1
  58   30   31 1
  59   31   32 1
  60   31   33 1
  61   31   34 1
  62   32   62 1
  63   32   63 1
  64   32   64 1
  65   33   65 1
  66   33   66 1
  67   33   67 1
  68   34   35 1
  69   34   37 1
  70   34   36 1
  71   35   68 1
  72   35   69 1
  73   35   70 1
  74   36   71 1
  75   36   72 1
  76   36   73 1
  77   37   74 1
  78   37   75 1
  79   37   76 1

#	End of record

