#	Name: ASD01813045
#	Creating user name:	WinNT
#	Creation time:	15. 06. 2019 19:29

#	Modifying user name:	WinNT
#	Modification time:	15. 06. 2019 19:29

#	Program:	/corina/corina34_cracker 3.40 0067  02.08.2006

@<TRIPOS>MOLECULE
ASD01813045
  55   59    0    0    0
SMALL
NO_CHARGES


@<TRIPOS>ATOM
   1 C1            -1.9066     1.4014     0.0374 C.2     
   2 C2            -2.0104     0.0627     0.0827 C.2     
   3 N3            -0.9002    -0.7284    -0.0086 N.pl3   
   4 C4             0.3412    -0.2442    -0.1332 C.2     
   5 C5             0.5526     1.1196    -0.1788 C.2     
   6 C6            -0.6214     1.9978    -0.0941 C.2     
   7 O7            -0.4970     3.2118    -0.1282 O.2     
   8 C8            -1.0779    -2.1820     0.0326 C.3     
   9 C9            -0.8981    -2.6702     1.4469 C.ar    
  10 C10           -3.0929     2.3253     0.1129 C.3     
  11 C11           -4.3117     1.5969     0.6750 C.3     
  12 C12           -4.4910     0.2909    -0.1089 C.3     
  13 C13           -3.3353    -0.6415     0.2447 C.3     
  14 C14           -2.0042    -2.8621     2.2553 C.ar    
  15 C15           -1.8460    -3.3085     3.5514 C.ar    
  16 C16           -0.5677    -3.5667     4.0457 C.ar    
  17 C17            0.5435    -3.3718     3.2258 C.ar    
  18 C18            0.3720    -2.9300     1.9298 C.ar    
  19 C19           -0.3909    -4.0457     5.4363 C.ar    
  20 C20           -1.0049    -3.3865     6.4860 C.ar    
  21 C21           -0.8437    -3.8300     7.7942 C.ar    
  22 C22           -0.0806    -4.9215     8.0788 C.ar    
  23 C23            0.5611    -5.6218     7.0425 C.ar    
  24 C24            0.4034    -5.1863     5.7043 C.ar    
  25 O25           -2.7743     3.4316     0.9594 O.3     
  26 C26            1.3540    -6.7514     7.3095 C.ar    
  27 C27            1.9613    -7.4061     6.2823 C.ar    
  28 C28            1.8095    -6.9730     4.9668 C.ar    
  29 C29            1.0442    -5.8857     4.6714 C.ar    
  30 C30            1.9088     1.6745    -0.3124 C.2     
  31 O31            2.8660     0.9290    -0.3846 O.2     
  32 O32            2.0896     3.0095    -0.3547 O.3     
  33 H33            1.1797    -0.9218    -0.1978 H       
  34 H34           -2.0795    -2.4356    -0.3147 H       
  35 H35           -0.3386    -2.6568    -0.6124 H       
  36 H36           -3.3246     2.6941    -0.8863 H       
  37 H37           -4.1529     1.3739     1.7301 H       
  38 H38           -5.1985     2.2201     0.5595 H       
  39 H39           -5.4370    -0.1757     0.1657 H       
  40 H40           -4.4804     0.4999    -1.1786 H       
  41 H41           -3.3622    -1.5111    -0.4119 H       
  42 H42           -3.4429    -0.9700     1.2785 H       
  43 H43           -2.9936    -2.6618     1.8714 H       
  44 H44           -2.7102    -3.4573     4.1818 H       
  45 H45            1.5358    -3.5697     3.6032 H       
  46 H46            1.2317    -2.7786     1.2939 H       
  47 H47           -1.6155    -2.5180     6.2877 H       
  48 H48           -1.3318    -3.2995     8.5983 H       
  49 H49            0.0319    -5.2492     9.1017 H       
  50 H50           -3.4924     4.0719     1.0569 H       
  51 H51            1.4810    -7.0977     8.3246 H       
  52 H52            2.5701    -8.2737     6.4900 H       
  53 H53            2.3021    -7.5097     4.1695 H       
  54 H54            0.9351    -5.5609     3.6472 H       
  55 H55            2.9987     3.3268    -0.4432 H       
@<TRIPOS>BOND
   1    1    2 2
   2    1   10 1
   3    1    6 1
   4    2    3 1
   5    2   13 1
   6    3    4 1
   7    3    8 1
   8    4    5 2
   9    4   33 1
  10    5    6 1
  11    5   30 1
  12    6    7 2
  13    8    9 1
  14    8   34 1
  15    8   35 1
  16    9   14 ar
  17    9   18 ar
  18   10   11 1
  19   10   25 1
  20   10   36 1
  21   11   12 1
  22   11   37 1
  23   11   38 1
  24   12   13 1
  25   12   39 1
  26   12   40 1
  27   13   41 1
  28   13   42 1
  29   14   15 ar
  30   14   43 1
  31   15   16 ar
  32   15   44 1
  33   16   17 ar
  34   16   19 1
  35   17   18 ar
  36   17   45 1
  37   18   46 1
  38   19   20 ar
  39   19   24 ar
  40   20   21 ar
  41   20   47 1
  42   21   22 ar
  43   21   48 1
  44   22   23 ar
  45   22   49 1
  46   23   24 ar
  47   23   26 ar
  48   24   29 ar
  49   25   50 1
  50   26   27 ar
  51   26   51 1
  52   27   28 ar
  53   27   52 1
  54   28   29 ar
  55   28   53 1
  56   29   54 1
  57   30   31 2
  58   30   32 1
  59   32   55 1

#	End of record

