#	Name: ASD00310306
#	Creating user name:	WinNT
#	Creation time:	15. 06. 2019 18:34

#	Modifying user name:	WinNT
#	Modification time:	15. 06. 2019 18:34

#	Program:	/corina/corina34_cracker 3.40 0067  02.08.2006

@<TRIPOS>MOLECULE
ASD00310306
  39   42    0    0    0
SMALL
NO_CHARGES


@<TRIPOS>ATOM
   1 N1             0.2373     4.2011    -2.7785 N.pl3   
   2 C2            -0.0646     2.9181    -3.0557 C.2     
   3 C3             1.0412     2.1246    -2.8380 C.2     
   4 C4             2.1147     3.0311    -2.3831 C.ar    
   5 C5             3.4409     2.8435    -2.0114 C.ar    
   6 C6             4.2056     3.9364    -1.6228 C.ar    
   7 C7             3.6400     5.2158    -1.6074 C.ar    
   8 C8             2.3269     5.4032    -1.9747 C.ar    
   9 C9             1.5494     4.3164    -2.3667 C.ar    
  10 C10            1.1300     0.7213    -3.0146 C.2     
  11 O11            0.1627     0.0952    -3.3969 O.2     
  12 C12            5.6220     3.7465    -1.2239 C.ar    
  13 C13            6.6187     4.5449    -1.7816 C.ar    
  14 C14            7.9345     4.3642    -1.4065 C.ar    
  15 C15            8.2647     3.3929    -0.4786 C.ar    
  16 C16            7.2795     2.5973     0.0779 C.ar    
  17 C17            5.9597     2.7731    -0.2857 C.ar    
  18 C18            9.7033     3.2004    -0.0730 C.3     
  19 C19           10.4308     4.3986     0.5401 C.3     
  20 C20           10.0237     3.2172     1.4230 C.3     
  21 C21           10.5185     2.2572    -0.9600 C.3     
  22 O22            9.9922     0.9326    -0.8568 O.3     
  23 Cl23           4.6012     6.5770    -1.1208 Cl      
  24 H24           -0.3818     4.9432    -2.8611 H       
  25 H25           -1.0266     2.5649    -3.3964 H       
  26 H26            3.8740     1.8543    -2.0243 H       
  27 H27            1.8990     6.3947    -1.9592 H       
  28 H28            2.0582     0.2088    -2.8091 H       
  29 H29            6.3620     5.3033    -2.5064 H       
  30 H30            8.7078     4.9821    -1.8384 H       
  31 H31            7.5430     1.8401     0.8016 H       
  32 H32            5.1908     2.1543     0.1528 H       
  33 H33           11.4903     4.5148     0.3118 H       
  34 H34            9.8689     5.3261     0.6500 H       
  35 H35            9.1941     3.3675     2.1137 H       
  36 H36           10.8154     2.5561     1.7756 H       
  37 H37           10.4602     2.5916    -1.9958 H       
  38 H38           11.5588     2.2612    -0.6348 H       
  39 H39           10.4616     0.2799    -1.3941 H       
@<TRIPOS>BOND
   1    1    2 1
   2    1    9 1
   3    1   24 1
   4    2    3 2
   5    2   25 1
   6    3    4 1
   7    3   10 1
   8    4    5 ar
   9    4    9 ar
  10    5    6 ar
  11    5   26 1
  12    6    7 ar
  13    6   12 1
  14    7    8 ar
  15    7   23 1
  16    8    9 ar
  17    8   27 1
  18   10   11 2
  19   10   28 1
  20   12   13 ar
  21   12   17 ar
  22   13   14 ar
  23   13   29 1
  24   14   15 ar
  25   14   30 1
  26   15   16 ar
  27   15   18 1
  28   16   17 ar
  29   16   31 1
  30   17   32 1
  31   18   19 1
  32   18   20 1
  33   18   21 1
  34   19   20 1
  35   19   33 1
  36   19   34 1
  37   20   35 1
  38   20   36 1
  39   21   22 1
  40   21   37 1
  41   21   38 1
  42   22   39 1

#	End of record

