#	Name: ASD00460022
#	Creating user name:	WinNT
#	Creation time:	15. 06. 2019 18:36

#	Modifying user name:	WinNT
#	Modification time:	15. 06. 2019 18:36

#	Program:	/corina/corina34_cracker 3.40 0067  02.08.2006

@<TRIPOS>MOLECULE
ASD00460022
  80   84    0    0    0
SMALL
NO_CHARGES


@<TRIPOS>ATOM
   1 O1             0.0023    -1.4624     1.8235 O.2     
   2 C2             0.1899    -0.2641     1.9072 C.2     
   3 N3             1.3466     0.2693     1.4666 N.am    
   4 C4             2.3778    -0.5948     0.8869 C.3     
   5 C5             2.1547    -0.7132    -0.6221 C.3     
   6 C6             3.2317    -1.6157    -1.2276 C.3     
   7 C7             3.0748    -3.0149    -0.6904 C.ar    
   8 C8             1.8469    -3.6466    -0.7552 C.ar    
   9 C9             1.7031    -4.9301    -0.2624 C.ar    
  10 C10            2.7872    -5.5820     0.2949 C.ar    
  11 C11            4.0153    -4.9507     0.3589 C.ar    
  12 C12            4.1602    -3.6689    -0.1379 C.ar    
  13 C13            3.0865    -1.6343    -2.7275 C.ar    
  14 C14            4.1778    -1.3613    -3.5309 C.ar    
  15 C15            4.0446    -1.3783    -4.9067 C.ar    
  16 C16            2.8203    -1.6687    -5.4791 C.ar    
  17 C17            1.7293    -1.9426    -4.6757 C.ar    
  18 C18            1.8635    -1.9299    -3.2999 C.ar    
  19 C19            1.5726     1.7133     1.5674 C.3     
  20 C20            2.2333     2.0336     2.9097 C.3     
  21 N21            2.4600     3.4815     3.0108 N.3     
  22 C22            2.8717     3.8566     4.3713 C.3     
  23 C23            3.1544     5.3605     4.4168 C.3     
  24 O24            1.9905     6.0724     3.9877 O.3     
  25 C25            1.5620     5.7320     2.6664 C.3     
  26 C26            1.2632     4.2318     2.6032 C.3     
  27 N27           -0.7610     0.5316     2.4355 N.am    
  28 C28           -1.9558    -0.0176     2.8845 C.2     
  29 S29           -2.3734    -1.7276     2.8317 S.3     
  30 C30           -3.9344    -1.3697     3.5669 C.2     
  31 C31           -4.0043    -0.0440     3.7807 C.2     
  32 N32           -2.9351     0.6483     3.4129 N.2     
  33 C33           -5.1933     0.5988     4.3919 C.ar    
  34 C34           -5.2155     1.9782     4.5922 C.ar    
  35 C35           -6.3220     2.5737     5.1601 C.ar    
  36 C36           -7.4146     1.7996     5.5327 C.ar    
  37 C37           -7.3945     0.4242     5.3343 C.ar    
  38 C38           -6.2925    -0.1749     4.7615 C.ar    
  39 N39           -8.5345     2.4051     6.1078 N.am    
  40 S40           -9.5765     3.2826     5.1662 S.o2    
  41 O41          -10.5793     3.7242     6.0711 O.2     
  42 O42           -8.7402     4.2110     4.4895 O.2     
  43 C43          -10.2599     2.0734     3.9994 C.3     
  44 H44            3.3611    -0.1643     1.0761 H       
  45 H45            2.3206    -1.5839     1.3413 H       
  46 H46            1.1714    -1.1438    -0.8114 H       
  47 H47            2.2118     0.2758    -1.0766 H       
  48 H48            4.2173    -1.2332    -0.9627 H       
  49 H49            1.0000    -3.1372    -1.1906 H       
  50 H50            0.7436    -5.4233    -0.3124 H       
  51 H51            2.6746    -6.5845     0.6806 H       
  52 H52            4.8622    -5.4599     0.7946 H       
  53 H53            5.1197    -3.1756    -0.0879 H       
  54 H54            5.1343    -1.1344    -3.0838 H       
  55 H55            4.8970    -1.1643    -5.5345 H       
  56 H56            2.7161    -1.6813    -6.5540 H       
  57 H57            0.7727    -2.1692    -5.1229 H       
  58 H58            1.0111    -2.1438    -2.6722 H       
  59 H59            2.2240     2.0366     0.7555 H       
  60 H60            0.6187     2.2361     1.4981 H       
  61 H61            1.5820     1.7102     3.7216 H       
  62 H62            3.1873     1.5108     2.9790 H       
  63 H63            2.0733     3.6149     5.0729 H       
  64 H64            3.7739     3.3083     4.6427 H       
  65 H65            3.4047     5.6532     5.4365 H       
  66 H66            3.9885     5.5943     3.7552 H       
  67 H67            0.6607     6.2933     2.4202 H       
  68 H68            2.3498     5.9765     1.9539 H       
  69 H69            0.9912     3.9575     1.5840 H       
  70 H70            0.4391     3.9961     3.2765 H       
  71 H71           -0.6114     1.4877     2.5022 H       
  72 H72           -4.7027    -2.0906     3.8042 H       
  73 H73           -4.3665     2.5800     4.3032 H       
  74 H74           -6.3395     3.6422     5.3158 H       
  75 H75           -8.2444    -0.1754     5.6252 H       
  76 H76           -6.2775    -1.2437     4.6072 H       
  77 H77           -8.7018     2.3115     7.0587 H       
  78 H78          -10.7964     1.3005     4.5498 H       
  79 H79          -10.9452     2.5750     3.3161 H       
  80 H80           -9.4487     1.6181     3.4313 H       
@<TRIPOS>BOND
   1    1    2 2
   2    2    3 am
   3    2   27 am
   4    3    4 1
   5    3   19 1
   6    4    5 1
   7    4   44 1
   8    4   45 1
   9    5    6 1
  10    5   46 1
  11    5   47 1
  12    6    7 1
  13    6   13 1
  14    6   48 1
  15    7    8 ar
  16    7   12 ar
  17    8    9 ar
  18    8   49 1
  19    9   10 ar
  20    9   50 1
  21   10   11 ar
  22   10   51 1
  23   11   12 ar
  24   11   52 1
  25   12   53 1
  26   13   14 ar
  27   13   18 ar
  28   14   15 ar
  29   14   54 1
  30   15   16 ar
  31   15   55 1
  32   16   17 ar
  33   16   56 1
  34   17   18 ar
  35   17   57 1
  36   18   58 1
  37   19   20 1
  38   19   59 1
  39   19   60 1
  40   20   21 1
  41   20   61 1
  42   20   62 1
  43   21   22 1
  44   21   26 1
  45   22   23 1
  46   22   63 1
  47   22   64 1
  48   23   24 1
  49   23   65 1
  50   23   66 1
  51   24   25 1
  52   25   26 1
  53   25   67 1
  54   25   68 1
  55   26   69 1
  56   26   70 1
  57   27   28 1
  58   27   71 1
  59   28   29 1
  60   28   32 2
  61   29   30 1
  62   30   31 2
  63   30   72 1
  64   31   32 1
  65   31   33 1
  66   33   34 ar
  67   33   38 ar
  68   34   35 ar
  69   34   73 1
  70   35   36 ar
  71   35   74 1
  72   36   37 ar
  73   36   39 1
  74   37   38 ar
  75   37   75 1
  76   38   76 1
  77   39   40 am
  78   39   77 1
  79   40   41 2
  80   40   42 2
  81   40   43 1
  82   43   78 1
  83   43   79 1
  84   43   80 1

#	End of record

