#	Name: ASD05143066
#	Creating user name:	WinNT
#	Creation time:	15. 06. 2019 20:57

#	Modifying user name:	WinNT
#	Modification time:	15. 06. 2019 20:57

#	Program:	/corina/corina34_cracker 3.40 0067  02.08.2006

@<TRIPOS>MOLECULE
ASD05143066
 148  152    0    0    0
SMALL
NO_CHARGES


@<TRIPOS>ATOM
   1 C1            -0.1058     4.5588     0.5781 C.2     
   2 C2            -0.1999     3.1680     1.1506 C.3     
   3 N3             1.1011     5.1077     0.3360 N.am    
   4 O4            -1.1162     5.1823     0.3306 O.2     
   5 C5             1.1926     6.4598    -0.2205 C.3     
   6 C6             0.5206     7.4502     0.7326 C.3     
   7 C7             0.4992     6.5004    -1.5579 C.2     
   8 C8             1.2998     7.5005     2.0484 C.3     
   9 C9             0.6278     8.4909     3.0015 C.3     
  10 N10            1.3739     8.5390     4.2614 N.pl3   
  11 C11            0.9549     9.3653     5.2772 C.2     
  12 N12            1.6551     9.4105     6.4596 N.pl3   
  13 N13           -0.1061    10.1057     5.1195 N.2     
  14 O14           -0.3138     5.6478    -1.8457 O.2     
  15 N15            0.7827     7.4844    -2.4343 N.am    
  16 C16            0.1087     7.5239    -3.7344 C.3     
  17 C17            0.0951     8.9613    -4.2583 C.3     
  18 C18           -0.4596     9.8924    -3.1785 C.3     
  19 C19            0.3727    11.1753    -3.1346 C.3     
  20 N20            1.8010    10.8318    -3.1226 N.3     
  21 C21            2.6252    12.0151    -2.8426 C.3     
  22 C22            3.9916    11.8539    -3.5121 C.3     
  23 C23            5.0007    12.7902    -2.8445 C.3     
  24 C24            6.1153    13.1283    -3.8367 C.3     
  25 N25            7.2321    12.1827    -3.6411 N.am    
  26 C26            6.5971    14.5355    -3.5944 C.2     
  27 N27            5.8968    15.5803    -4.0786 N.am    
  28 O28            7.6150    14.7279    -2.9637 O.2     
  29 C29            7.5197    11.3549    -4.6832 C.2     
  30 O30            6.8714    11.4056    -5.7070 O.2     
  31 C31            8.6563    10.3749    -4.5451 C.3     
  32 N32            8.5381     9.3559    -5.6126 N.am    
  33 C33            9.9894    11.1125    -4.6851 C.3     
  34 C34            8.2963     8.0826    -5.1800 C.2     
  35 O35            8.1842     7.8436    -3.9963 O.2     
  36 C36            8.1708     6.9808    -6.2002 C.3     
  37 N37            7.5223     5.8153    -5.5665 N.am    
  38 C38            7.3192     7.4650    -7.3755 C.3     
  39 C39            6.3410     5.4080    -6.1062 C.2     
  40 O40            5.8682     5.9899    -7.0595 O.2     
  41 C41            5.6284     4.2245    -5.5043 C.3     
  42 C42           11.1233    10.1544    -4.4250 C.2     
  43 C43           11.7424     9.2521    -5.3988 C.ar    
  44 C44           12.7492     8.5597    -4.7019 C.ar    
  45 N45           12.7320     9.0168    -3.4032 N.pl3   
  46 C46           11.7613     9.9702    -3.2584 C.2     
  47 C47           11.5269     8.9907    -6.7534 C.ar    
  48 C48           12.2964     8.0623    -7.3958 C.ar    
  49 C49           13.2910     7.3760    -6.7123 C.ar    
  50 C50           13.5211     7.6189    -5.3761 C.ar    
  51 N51            4.2182     4.2421    -5.9565 N.am    
  52 C52            5.6795     4.3159    -3.9779 C.3     
  53 C53            7.0965     4.1069    -3.5093 C.ar    
  54 C54            7.7810     5.1404    -2.8981 C.ar    
  55 C55            9.0823     4.9491    -2.4670 C.ar    
  56 C56            9.6977     3.7201    -2.6492 C.ar    
  57 C57            9.0095     2.6871    -3.2617 C.ar    
  58 C58            7.7084     2.8798    -3.6862 C.ar    
  59 C59            0.8449     6.6408    -4.7090 C.2     
  60 O60            1.1972     7.0732    -5.7859 O.2     
  61 C61            7.4126     6.4567    -8.5224 C.3     
  62 C62            6.4437     6.8596    -9.6359 C.3     
  63 N63            6.5332     5.8942   -10.7341 N.pl3   
  64 C64            5.7497     6.0512   -11.8529 C.2     
  65 N65            5.8336     5.1452   -12.8836 N.pl3   
  66 N66            4.9274     7.0590   -11.9365 N.2     
  67 N67            1.1091     5.3508    -4.3628 N.am    
  68 C68            1.8362     4.5361    -5.3566 C.3     
  69 C69            3.2955     4.5004    -4.9828 C.2     
  70 O70            3.6446     4.6971    -3.8381 O.2     
  71 C71            1.6777     5.1592    -6.7450 C.3     
  72 C72            0.2125     5.2995    -7.0684 C.2     
  73 C73           -0.4134     6.4368    -7.4265 C.2     
  74 N74           -1.7295     6.1183    -7.6270 N.pl3   
  75 C75           -1.8620     4.7965    -7.3842 C.2     
  76 N76           -0.6956     4.3125    -7.0555 N.2     
  77 F77            9.7522     5.9589    -1.8698 F       
  78 F78           10.9680     3.5311    -2.2297 F       
  79 H79            0.8030     2.7683     1.3009 H       
  80 H80           -0.7240     3.2029     2.1057 H       
  81 H81           -0.7467     2.5267     0.4593 H       
  82 H82            1.9092     4.6075     0.5303 H       
  83 H83            2.2408     6.7308    -0.3463 H       
  84 H84            0.5098     8.4411     0.2786 H       
  85 H85           -0.5025     7.1290     0.9283 H       
  86 H86            1.3106     6.5096     2.5024 H       
  87 H87            2.3228     7.8217     1.8527 H       
  88 H88            0.6170     9.4818     2.5475 H       
  89 H89           -0.3953     8.1697     3.1972 H       
  90 H90            2.1635     7.9880     4.3788 H       
  91 H91            2.4447     8.8595     6.5770 H       
  92 H92            1.3595     9.9934     7.1763 H       
  93 H93           -0.4017    10.6886     5.8362 H       
  94 H94            1.4330     8.1663    -2.2042 H       
  95 H95           -0.9155     7.1679    -3.6237 H       
  96 H96            1.1106     9.2648    -4.5131 H       
  97 H97           -0.5347     9.0186    -5.1461 H       
  98 H98           -1.4960    10.1393    -3.4090 H       
  99 H99           -0.4115     9.3947    -2.2099 H       
 100 H100           0.1522    11.7817    -4.0131 H       
 101 H101           0.1265    11.7375    -2.2338 H       
 102 H102           1.9900    10.0945    -2.4602 H       
 103 H103           2.1307    12.9036    -3.2351 H       
 104 H104           2.7582    12.1188    -1.7657 H       
 105 H105           4.3282    10.8225    -3.4070 H       
 106 H106           3.9094    12.1031    -4.5700 H       
 107 H107           4.4977    13.7069    -2.5368 H       
 108 H108           5.4288    12.2995    -1.9704 H       
 109 H109           5.7366    13.0405    -4.8551 H       
 110 H110           7.7356    12.1529    -2.8125 H       
 111 H111           5.0826    15.4265    -4.5830 H       
 112 H112           6.2068    16.4861    -3.9226 H       
 113 H113           8.6047     9.8905    -3.5700 H       
 114 H114           8.6259     9.5767    -6.5530 H       
 115 H115          10.0779    11.5147    -5.6944 H       
 116 H116          10.0307    11.9286    -3.9639 H       
 117 H117           9.1614     6.6985    -6.5565 H       
 118 H118           7.9179     5.3630    -4.8050 H       
 119 H119           6.2808     7.5585    -7.0576 H       
 120 H120           7.6844     8.4347    -7.7135 H       
 121 H121           6.1070     3.3025    -5.8345 H       
 122 H122          13.3227     8.7112    -2.6970 H       
 123 H123          11.5365    10.4916    -2.3397 H       
 124 H124          10.7546     9.5203    -7.2914 H       
 125 H125          12.1294     7.8605    -8.4435 H       
 126 H126          13.8908     6.6447    -7.2337 H       
 127 H127          14.2974     7.0799    -4.8532 H       
 128 H128           3.9673     4.0818    -6.8797 H       
 129 H129           5.3335     5.2998    -3.6611 H       
 130 H130           5.0371     3.5484    -3.5462 H       
 131 H131           7.3006     6.0973    -2.7571 H       
 132 H132           9.4878     1.7293    -3.4041 H       
 133 H133           7.1719     2.0734    -4.1641 H       
 134 H134           8.4301     6.4440    -8.9131 H       
 135 H135           7.1519     5.4639    -8.1556 H       
 136 H136           5.4262     6.8723    -9.2452 H       
 137 H137           6.7044     7.8524   -10.0027 H       
 138 H138           7.1451     5.1442   -10.6719 H       
 139 H139           6.4456     4.3951   -12.8214 H       
 140 H140           5.2809     5.2559   -13.6730 H       
 141 H141           4.3746     7.1698   -12.7259 H       
 142 H142           0.8337     4.9857    -3.5074 H       
 143 H143           1.4355     3.5224    -5.3613 H       
 144 H144           2.1484     6.1422    -6.7580 H       
 145 H145           2.1538     4.5185    -7.4873 H       
 146 H146           0.0364     7.4127    -7.5345 H       
 147 H147          -2.4351     6.7281    -7.8937 H       
 148 H148          -2.7805     4.2326    -7.4544 H       
@<TRIPOS>BOND
   1    1    2 1
   2    1    3 am
   3    1    4 2
   4    2   79 1
   5    2   80 1
   6    2   81 1
   7    3    5 1
   8    3   82 1
   9    5    6 1
  10    5    7 1
  11    5   83 1
  12    6    8 1
  13    6   84 1
  14    6   85 1
  15    7   14 2
  16    7   15 am
  17    8    9 1
  18    8   86 1
  19    8   87 1
  20    9   10 1
  21    9   88 1
  22    9   89 1
  23   10   11 1
  24   10   90 1
  25   11   12 1
  26   11   13 2
  27   12   91 1
  28   12   92 1
  29   13   93 1
  30   15   16 1
  31   15   94 1
  32   16   17 1
  33   16   59 1
  34   16   95 1
  35   17   18 1
  36   17   96 1
  37   17   97 1
  38   18   19 1
  39   18   98 1
  40   18   99 1
  41   19   20 1
  42   19  100 1
  43   19  101 1
  44   20   21 1
  45   20  102 1
  46   21   22 1
  47   21  103 1
  48   21  104 1
  49   22   23 1
  50   22  105 1
  51   22  106 1
  52   23   24 1
  53   23  107 1
  54   23  108 1
  55   24   25 1
  56   24   26 1
  57   24  109 1
  58   25   29 am
  59   25  110 1
  60   26   27 am
  61   26   28 2
  62   27  111 1
  63   27  112 1
  64   29   30 2
  65   29   31 1
  66   31   32 1
  67   31   33 1
  68   31  113 1
  69   32   34 am
  70   32  114 1
  71   33   42 1
  72   33  115 1
  73   33  116 1
  74   34   35 2
  75   34   36 1
  76   36   37 1
  77   36   38 1
  78   36  117 1
  79   37   39 am
  80   37  118 1
  81   38   61 1
  82   38  119 1
  83   38  120 1
  84   39   40 2
  85   39   41 1
  86   41   51 1
  87   41   52 1
  88   41  121 1
  89   42   43 1
  90   42   46 2
  91   43   44 ar
  92   43   47 ar
  93   44   45 1
  94   44   50 ar
  95   45   46 1
  96   45  122 1
  97   46  123 1
  98   47   48 ar
  99   47  124 1
 100   48   49 ar
 101   48  125 1
 102   49   50 ar
 103   49  126 1
 104   50  127 1
 105   51   69 am
 106   51  128 1
 107   52   53 1
 108   52  129 1
 109   52  130 1
 110   53   54 ar
 111   53   58 ar
 112   54   55 ar
 113   54  131 1
 114   55   56 ar
 115   55   77 1
 116   56   57 ar
 117   56   78 1
 118   57   58 ar
 119   57  132 1
 120   58  133 1
 121   59   60 2
 122   59   67 am
 123   61   62 1
 124   61  134 1
 125   61  135 1
 126   62   63 1
 127   62  136 1
 128   62  137 1
 129   63   64 1
 130   63  138 1
 131   64   65 1
 132   64   66 2
 133   65  139 1
 134   65  140 1
 135   66  141 1
 136   67   68 1
 137   67  142 1
 138   68   69 1
 139   68   71 1
 140   68  143 1
 141   69   70 2
 142   71   72 1
 143   71  144 1
 144   71  145 1
 145   72   73 2
 146   72   76 1
 147   73   74 1
 148   73  146 1
 149   74   75 1
 150   74  147 1
 151   75   76 2
 152   75  148 1

#	End of record

