#	Name: ASD01941015
#	Creating user name:	WinNT
#	Creation time:	15. 06. 2019 20:13

#	Modifying user name:	WinNT
#	Modification time:	15. 06. 2019 20:13

#	Program:	/corina/corina34_cracker 3.40 0067  02.08.2006

@<TRIPOS>MOLECULE
ASD01941015
  50   54    0    0    0
SMALL
NO_CHARGES


@<TRIPOS>ATOM
   1 N1             0.7308     0.9175    -0.2029 N.am    
   2 C2             0.8223    -0.4106    -0.3811 C.2     
   3 N3            -0.2298    -1.1703    -0.7297 N.am    
   4 C4            -1.4678    -0.6127    -0.9228 C.2     
   5 C5            -1.6176     0.7640    -0.7499 C.2     
   6 C6            -0.4491     1.5574    -0.3644 C.2     
   7 N7            -2.5375    -1.3704    -1.2760 N.am    
   8 C8            -3.7520    -0.8283    -1.4671 C.2     
   9 C9            -3.9799     0.5408    -1.3132 C.2     
  10 C10           -2.9296     1.3722    -0.9520 C.2     
  11 C11           -0.0596    -2.5509    -0.8987 C.ar    
  12 C12            0.5169    -3.0435    -2.0618 C.ar    
  13 C13            0.6832    -4.4048    -2.2254 C.ar    
  14 C14            0.2764    -5.2768    -1.2324 C.ar    
  15 C15           -0.2981    -4.7892    -0.0729 C.ar    
  16 C16           -0.4619    -3.4286     0.0991 C.ar    
  17 C17           -2.3633    -2.8141    -1.4536 C.3     
  18 O18           -4.6818    -1.5526    -1.7843 O.2     
  19 N19           -3.1184     2.7304    -0.7905 N.pl3   
  20 C20           -4.3450     3.3108    -1.1279 C.ar    
  21 C21           -4.8963     4.2939    -0.3162 C.ar    
  22 C22           -6.1077     4.8657    -0.6521 C.ar    
  23 C23           -6.7722     4.4601    -1.7963 C.ar    
  24 C24           -6.2252     3.4808    -2.6068 C.ar    
  25 C25           -5.0116     2.9094    -2.2785 C.ar    
  26 Cl26          -8.2950     5.1806    -2.2152 Cl      
  27 O27            1.9012    -0.9472    -0.2209 O.2     
  28 C28            1.9222     1.6808     0.1768 C.3     
  29 O29           -0.5354     2.7606    -0.2031 O.2     
  30 C30            3.0607     1.7664    -0.8417 C.3     
  31 C31            2.1875     2.9920    -0.5656 C.3     
  32 H32           -4.9666     0.9495    -1.4739 H       
  33 H33            0.8345    -2.3630    -2.8379 H       
  34 H34            1.1313    -4.7886    -3.1301 H       
  35 H35            0.4072    -6.3409    -1.3628 H       
  36 H36           -0.6152    -5.4728     0.7008 H       
  37 H37           -0.9103    -3.0484     1.0050 H       
  38 H38           -2.4135    -3.3082    -0.4833 H       
  39 H39           -3.1533    -3.1988    -2.0986 H       
  40 H40           -1.3934    -3.0095    -1.9110 H       
  41 H41           -2.4001     3.2820    -0.4430 H       
  42 H42           -4.3783     4.6105     0.5770 H       
  43 H43           -6.5370     5.6298    -0.0212 H       
  44 H44           -6.7460     3.1659    -3.4990 H       
  45 H45           -4.5849     2.1454    -2.9116 H       
  46 H46            2.1930     1.6356     1.2317 H       
  47 H47            4.0804     1.7779    -0.4570 H       
  48 H48            2.9232     1.2548    -1.7944 H       
  49 H49            1.4756     3.2868    -1.3366 H       
  50 H50            2.6328     3.8099     0.0008 H       
@<TRIPOS>BOND
   1    1    2 am
   2    1   28 1
   3    1    6 am
   4    2    3 am
   5    2   27 2
   6    3    4 1
   7    3   11 1
   8    4    5 2
   9    4    7 1
  10    5    6 1
  11    5   10 1
  12    6   29 2
  13    7    8 am
  14    7   17 1
  15    8    9 1
  16    8   18 2
  17    9   10 2
  18    9   32 1
  19   10   19 1
  20   11   12 ar
  21   11   16 ar
  22   12   13 ar
  23   12   33 1
  24   13   14 ar
  25   13   34 1
  26   14   15 ar
  27   14   35 1
  28   15   16 ar
  29   15   36 1
  30   16   37 1
  31   17   38 1
  32   17   39 1
  33   17   40 1
  34   19   20 1
  35   19   41 1
  36   20   21 ar
  37   20   25 ar
  38   21   22 ar
  39   21   42 1
  40   22   23 ar
  41   22   43 1
  42   23   24 ar
  43   23   26 1
  44   24   25 ar
  45   24   44 1
  46   25   45 1
  47   28   30 1
  48   28   31 1
  49   28   46 1
  50   30   31 1
  51   30   47 1
  52   30   48 1
  53   31   49 1
  54   31   50 1

#	End of record

