#	Name: ASD01200288
#	Creating user name:	WinNT
#	Creation time:	15. 06. 2019 19:08

#	Modifying user name:	WinNT
#	Modification time:	15. 06. 2019 19:08

#	Program:	/corina/corina34_cracker 3.40 0067  02.08.2006

@<TRIPOS>MOLECULE
ASD01200288
  54   56    0    0    0
SMALL
NO_CHARGES


@<TRIPOS>ATOM
   1 C1            -0.0033     1.3827    -0.1333 C.ar    
   2 C2             0.0300    -0.0131    -0.1583 C.ar    
   3 C3            -1.1147    -0.7395    -0.2931 C.ar    
   4 C4            -2.3469    -0.0826    -0.4088 C.ar    
   5 C5            -2.3870     1.3331    -0.3841 C.ar    
   6 C6            -1.2001     2.0587    -0.2392 C.ar    
   7 N7            -3.4994    -0.7569    -0.5438 N.ar    
   8 C8            -4.6376    -0.1143    -0.6503 C.ar    
   9 N9            -4.7240     1.2066    -0.6328 N.ar    
  10 C10           -3.6470     1.9692    -0.5035 C.ar    
  11 O11            1.1547     2.0814     0.0022 O.3     
  12 C12            1.0698     3.5041    -0.1003 C.3     
  13 C13            0.8643     4.1044     1.2919 C.3     
  14 C14            2.3649     4.0501    -0.7050 C.3     
  15 F15           -0.3741     3.6953     1.7980 F       
  16 F16            2.4952     3.5914    -2.0202 F       
  17 N17           -3.7508     3.3461    -0.4871 N.pl3   
  18 C18           -4.9948     3.9497    -0.6069 C.2     
  19 N19           -5.2027     5.2296    -0.6035 N.2     
  20 C20           -6.4541     5.6317    -0.7281 C.2     
  21 C21           -7.3450     4.6454    -0.8421 C.2     
  22 S22           -6.4754     3.1142    -0.7879 S.3     
  23 C23           -6.8445     7.0872    -0.7398 C.3     
  24 P24           -6.8213     7.7089    -2.4533 P.3     
  25 O25           -5.4940     7.4492    -3.0544 O.2     
  26 O26           -7.9561     6.9567    -3.3126 O.3     
  27 C27           -9.2849     6.2872    -5.2169 C.3     
  28 C28           -8.1222     7.1480    -4.7190 C.3     
  29 O29           -7.1097     9.2929    -2.4535 O.3     
  30 C30           -7.3795    11.5468    -3.2828 C.3     
  31 C31           -7.0550    10.0938    -3.6357 C.3     
  32 H32            0.9772    -0.5243    -0.0699 H       
  33 H33           -1.0725    -1.8186    -0.3110 H       
  34 H34           -1.2201     3.1384    -0.2188 H       
  35 H35           -5.5458    -0.6888    -0.7576 H       
  36 H36            0.2289     3.7728    -0.7396 H       
  37 H37            1.6587     3.7631     1.9556 H       
  38 H38            0.8883     5.1922     1.2258 H       
  39 H39            2.3365     5.1397    -0.7013 H       
  40 H40            3.2145     3.7068    -0.1146 H       
  41 H41           -2.9542     3.8914    -0.3919 H       
  42 H42           -8.4127     4.7648    -0.9526 H       
  43 H43           -7.8471     7.1978    -0.3267 H       
  44 H44           -6.1382     7.6577    -0.1367 H       
  45 H45           -9.0720     5.2373    -5.0157 H       
  46 H46          -10.1996     6.5779    -4.7002 H       
  47 H47           -9.4116     6.4331    -6.2897 H       
  48 H48           -8.3351     8.1978    -4.9202 H       
  49 H49           -7.2076     6.8572    -5.2357 H       
  50 H50           -6.6524    11.9162    -2.5597 H       
  51 H51           -7.3377    12.1577    -4.1845 H       
  52 H52           -8.3796    11.6016    -2.8528 H       
  53 H53           -6.0549    10.0390    -4.0656 H       
  54 H54           -7.7821     9.7244    -4.3588 H       
@<TRIPOS>BOND
   1    1    2 ar
   2    1   11 1
   3    1    6 ar
   4    2    3 ar
   5    2   32 1
   6    3    4 ar
   7    3   33 1
   8    4    5 ar
   9    4    7 ar
  10    5    6 ar
  11    5   10 ar
  12    6   34 1
  13    7    8 ar
  14    8    9 ar
  15    8   35 1
  16    9   10 ar
  17   10   17 1
  18   11   12 1
  19   12   13 1
  20   12   14 1
  21   12   36 1
  22   13   15 1
  23   13   37 1
  24   13   38 1
  25   14   16 1
  26   14   39 1
  27   14   40 1
  28   17   18 1
  29   17   41 1
  30   18   19 2
  31   18   22 1
  32   19   20 1
  33   20   21 2
  34   20   23 1
  35   21   22 1
  36   21   42 1
  37   23   24 1
  38   23   43 1
  39   23   44 1
  40   24   25 2
  41   24   26 1
  42   24   29 1
  43   26   28 1
  44   27   28 1
  45   27   45 1
  46   27   46 1
  47   27   47 1
  48   28   48 1
  49   28   49 1
  50   29   31 1
  51   30   31 1
  52   30   50 1
  53   30   51 1
  54   30   52 1
  55   31   53 1
  56   31   54 1

#	End of record

