#	Name: ASD00311013
#	Creating user name:	WinNT
#	Creation time:	15. 06. 2019 18:34

#	Modifying user name:	WinNT
#	Modification time:	15. 06. 2019 18:34

#	Program:	/corina/corina34_cracker 3.40 0067  02.08.2006

@<TRIPOS>MOLECULE
ASD00311013
  32   34    0    0    0
SMALL
NO_CHARGES


@<TRIPOS>ATOM
   1 C1            -0.0167     1.3795     0.0096 C.ar    
   2 C2             0.0021    -0.0041     0.0020 C.ar    
   3 N3             1.1410    -0.6698    -0.0124 N.ar    
   4 C4             2.3057    -0.0553    -0.0203 C.ar    
   5 C5             2.3727     1.3387    -0.0134 C.ar    
   6 C6             1.1803     2.0730     0.0019 C.ar    
   7 C7             4.9178     1.2503    -0.0372 C.2     
   8 C8             3.6809     2.0288    -0.0217 C.2     
   9 C9             7.3109    -0.3105    -0.0675 C.ar    
  10 C10            7.3572     1.0979    -0.0604 C.ar    
  11 C11            6.1132     1.8809    -0.0448 C.2     
  12 N12            8.4025    -1.0296    -0.0809 N.ar    
  13 C13            9.6172    -0.4670    -0.0886 C.ar    
  14 C14            9.7501     0.9451    -0.0822 C.ar    
  15 C15            8.5933     1.7416    -0.0678 C.ar    
  16 O16            3.7274     3.2453    -0.0156 O.2     
  17 C17           11.0314     1.5225    -0.0894 C.ar    
  18 C18           12.1313     0.7196    -0.1024 C.ar    
  19 C19           12.0026    -0.6674    -0.1087 C.ar    
  20 C20           10.7764    -1.2600    -0.1026 C.ar    
  21 H21           -0.9560     1.9124     0.0170 H       
  22 H22           -0.9310    -0.5479     0.0084 H       
  23 H23            3.2169    -0.6351    -0.0317 H       
  24 H24            1.1948     3.1529     0.0072 H       
  25 H25            4.8766     0.1711    -0.0426 H       
  26 H26            6.3519    -0.8071    -0.0571 H       
  27 H27            6.1545     2.9601    -0.0394 H       
  28 H28            8.6596     2.8196    -0.0630 H       
  29 H29           11.1432     2.5967    -0.0849 H       
  30 H30           13.1157     1.1638    -0.1082 H       
  31 H31           12.8899    -1.2830    -0.1190 H       
  32 H32           10.6955    -2.3369    -0.1080 H       
@<TRIPOS>BOND
   1    1    2 ar
   2    1    6 ar
   3    1   21 1
   4    2    3 ar
   5    2   22 1
   6    3    4 ar
   7    4    5 ar
   8    4   23 1
   9    5    6 ar
  10    5    8 1
  11    6   24 1
  12    7    8 1
  13    7   11 2
  14    7   25 1
  15    8   16 2
  16    9   10 ar
  17    9   12 ar
  18    9   26 1
  19   10   11 1
  20   10   15 ar
  21   11   27 1
  22   12   13 ar
  23   13   14 ar
  24   13   20 ar
  25   14   15 ar
  26   14   17 ar
  27   15   28 1
  28   17   18 ar
  29   17   29 1
  30   18   19 ar
  31   18   30 1
  32   19   20 ar
  33   19   31 1
  34   20   32 1

#	End of record

