#	Name: ASD00170701
#	Creating user name:	WinNT
#	Creation time:	15. 06. 2019 18:32

#	Modifying user name:	WinNT
#	Modification time:	15. 06. 2019 18:32

#	Program:	/corina/corina34_cracker 3.40 0067  02.08.2006

@<TRIPOS>MOLECULE
ASD00170701
  21   23    0    0    0
SMALL
NO_CHARGES


@<TRIPOS>ATOM
   1 C1            -0.0162     1.3444     0.0094 C.2     
   2 C2             0.0021    -0.0041     0.0020 C.2     
   3 C3            -1.3286    -0.5988     0.0121 C.2     
   4 C4            -2.3363     0.3473     0.0278 C.2     
   5 S5            -1.6548     1.9623     0.0360 S.3     
   6 C6             0.9903    -1.1213    -0.0138 C.ar    
   7 C7             0.2960    -2.3404    -0.0133 C.ar    
   8 C8            -1.1518    -2.0626     0.0026 C.2     
   9 C9             2.3817    -1.1143    -0.0277 C.ar    
  10 C10            3.0752    -2.3104    -0.0410 C.ar    
  11 C11            2.3912    -3.5167    -0.0410 C.ar    
  12 C12            1.0126    -3.5397    -0.0264 C.ar    
  13 O13           -2.0426    -2.8937     0.0071 O.2     
  14 N14           -3.6814     0.0622     0.0398 N.pl3   
  15 Cl15           4.8111    -2.3019    -0.0584 Cl      
  16 H16            0.8678     1.9648     0.0043 H       
  17 H17            2.9185    -0.1771    -0.0285 H       
  18 H18            2.9426    -4.4453    -0.0521 H       
  19 H19            0.4875    -4.4834    -0.0261 H       
  20 H20           -3.9817    -0.8601     0.0375 H       
  21 H21           -4.3300     0.7834     0.0505 H       
@<TRIPOS>BOND
   1    1    2 2
   2    1   16 1
   3    1    5 1
   4    2    3 1
   5    2    6 1
   6    3    4 2
   7    3    8 1
   8    4    5 1
   9    4   14 1
  10    6    7 ar
  11    6    9 ar
  12    7    8 1
  13    7   12 ar
  14    8   13 2
  15    9   10 ar
  16    9   17 1
  17   10   11 ar
  18   10   15 1
  19   11   12 ar
  20   11   18 1
  21   12   19 1
  22   14   20 1
  23   14   21 1

#	End of record

