#	Name: ASD00841915
#	Creating user name:	WinNT
#	Creation time:	15. 06. 2019 18:43

#	Modifying user name:	WinNT
#	Modification time:	15. 06. 2019 18:43

#	Program:	/corina/corina34_cracker 3.40 0067  02.08.2006

@<TRIPOS>MOLECULE
ASD00841915
  94   99    0    0    0
SMALL
NO_CHARGES


@<TRIPOS>ATOM
   1 C1             1.0068     1.5579    -0.3812 C.ar    
   2 C2             1.3136     0.2278    -0.6281 C.ar    
   3 C3             1.2442    -0.7003     0.4009 C.ar    
   4 C4             0.8699    -0.2981     1.6681 C.ar    
   5 C5             0.5640     1.0284     1.9116 C.ar    
   6 C6             0.6329     1.9552     0.8882 C.ar    
   7 C7             1.5764    -2.1462     0.1360 C.3     
   8 C8             1.3074    -2.9862     1.3664 C.2     
   9 C9             0.7732    -2.6696    -1.0564 C.3     
  10 C10           -0.6960    -2.4393    -0.8124 C.2     
  11 N11           -1.6064    -2.9101    -1.6876 N.am    
  12 O12           -1.0592    -1.8304     0.1716 O.2     
  13 C13           -3.0328    -2.5979    -1.5246 C.3     
  14 C14           -3.8271    -3.9078    -1.5215 C.3     
  15 C15           -3.4982    -4.7021    -2.7876 C.3     
  16 C16           -2.0061    -5.0420    -2.8055 C.3     
  17 C17           -1.1906    -3.7403    -2.8263 C.3     
  18 N18           -4.2832    -5.9437    -2.8041 N.3     
  19 C19           -4.0830    -6.6766    -4.0620 C.3     
  20 C20           -4.8527    -7.9984    -4.0073 C.3     
  21 N21           -6.2787    -7.7229    -3.7828 N.3     
  22 C22           -6.4789    -6.9900    -2.5249 C.3     
  23 C23           -5.7092    -5.6682    -2.5796 C.3     
  24 C24           -7.0637    -8.9645    -3.7993 C.3     
  25 O25            0.2362    -3.1387     1.9144 O.2     
  26 N26            2.4784    -3.5307     1.7376 N.am    
  27 C27            3.0589    -2.3131    -0.1062 C.ar    
  28 C28            3.5260    -3.1560     0.8948 C.ar    
  29 C29            3.9130    -1.8110    -1.0621 C.ar    
  30 C30            5.2565    -2.1455    -1.0326 C.ar    
  31 C31            5.7351    -2.9852    -0.0394 C.ar    
  32 C32            4.8782    -3.4894     0.9202 C.ar    
  33 Cl33           6.3375    -1.5154    -2.2360 Cl      
  34 F34            7.0456    -3.3124    -0.0093 F       
  35 C35            2.4052    -6.1804     2.4780 C.ar    
  36 C36            1.1621    -6.5669     1.9991 C.ar    
  37 C37            3.4466    -7.0880     2.5048 C.ar    
  38 C38            3.2506    -8.3802     2.0545 C.ar    
  39 C39            2.0122    -8.7680     1.5766 C.ar    
  40 C40            0.9678    -7.8646     1.5481 C.ar    
  41 H41            1.8616    -9.7781     1.2253 H       
  42 O42            0.1360    -5.6761     1.9721 O.3     
  43 C43           -1.1159    -6.1437     1.4659 C.3     
  44 C44           -8.4872    -8.6742    -3.3196 C.3     
  45 C45           -9.3048    -9.9673    -3.3368 C.3     
  46 O46            1.6813    -0.1655    -1.8759 O.3     
  47 C47            2.1644     0.2243    -4.2115 C.3     
  48 C48            1.6224     0.8188    -2.9101 C.3     
  49 S49            2.6580    -4.5313     3.0448 S.o2    
  50 O50            4.0225    -4.4448     3.4319 O.2     
  51 O51            1.5806    -4.2398     3.9244 O.2     
  52 H52            1.0645     2.2830    -1.1794 H       
  53 H53            0.8156    -1.0202     2.4694 H       
  54 H54            0.2709     1.3408     2.9030 H       
  55 H55            0.3936     2.9906     1.0809 H       
  56 H56            1.0785    -2.1418    -1.9599 H       
  57 H57            0.9583    -3.7367    -1.1789 H       
  58 H58           -3.1868    -2.0749    -0.5807 H       
  59 H59           -3.3662    -1.9703    -2.3511 H       
  60 H60           -3.5574    -4.4947    -0.6435 H       
  61 H61           -4.8941    -3.6862    -1.4979 H       
  62 H62           -3.7451    -4.1049    -3.6654 H       
  63 H63           -1.7536    -5.6182    -1.9153 H       
  64 H64           -1.7771    -5.6277    -3.6957 H       
  65 H65           -1.3750    -3.2085    -3.7597 H       
  66 H66           -0.1292    -3.9727    -2.7392 H       
  67 H67           -4.4496    -6.0766    -4.8949 H       
  68 H68           -3.0210    -6.8797    -4.1995 H       
  69 H69           -4.7292    -8.5305    -4.9505 H       
  70 H70           -4.4677    -8.6099    -3.1913 H       
  71 H71           -7.5409    -6.7869    -2.3874 H       
  72 H72           -6.1123    -7.5900    -1.6920 H       
  73 H73           -5.8327    -5.1361    -1.6364 H       
  74 H74           -6.0943    -5.0567    -3.3956 H       
  75 H75           -7.0960    -9.3604    -4.8143 H       
  76 H76           -6.5997    -9.6965    -3.1383 H       
  77 H77            3.5356    -1.1572    -1.8344 H       
  78 H78            5.2577    -4.1431     1.6916 H       
  79 H79            4.4146    -6.7876     2.8776 H       
  80 H80            4.0660    -9.0880     2.0756 H       
  81 H81            0.0006    -8.1682     1.1754 H       
  82 H82           -0.9898    -6.4765     0.4357 H       
  83 H83           -1.4665    -6.9760     2.0763 H       
  84 H84           -1.8462    -5.3353     1.4998 H       
  85 H85           -8.4549    -8.2782    -2.3045 H       
  86 H86           -8.9512    -7.9422    -3.9806 H       
  87 H87           -9.3371   -10.3633    -4.3518 H       
  88 H88           -8.8408   -10.6994    -2.6758 H       
  89 H89          -10.3190    -9.7605    -2.9950 H       
  90 H90            2.2012     0.9990    -4.9773 H       
  91 H91            3.1676    -0.1670    -4.0421 H       
  92 H92            1.5107    -0.5828    -4.5423 H       
  93 H93            0.5883     1.1308    -3.0563 H       
  94 H94            2.2254     1.6811    -2.6258 H       
@<TRIPOS>BOND
   1    1    2 ar
   2    1    6 ar
   3    1   52 1
   4    2    3 ar
   5    2   46 1
   6    3    4 ar
   7    3    7 1
   8    4    5 ar
   9    4   53 1
  10    5    6 ar
  11    5   54 1
  12    6   55 1
  13    7    8 1
  14    7    9 1
  15    7   27 1
  16    8   25 2
  17    8   26 am
  18    9   10 1
  19    9   56 1
  20    9   57 1
  21   10   11 am
  22   10   12 2
  23   11   13 1
  24   11   17 1
  25   13   14 1
  26   13   58 1
  27   13   59 1
  28   14   15 1
  29   14   60 1
  30   14   61 1
  31   15   16 1
  32   15   18 1
  33   15   62 1
  34   16   17 1
  35   16   63 1
  36   16   64 1
  37   17   65 1
  38   17   66 1
  39   18   19 1
  40   18   23 1
  41   19   20 1
  42   19   67 1
  43   19   68 1
  44   20   21 1
  45   20   69 1
  46   20   70 1
  47   21   22 1
  48   21   24 1
  49   22   23 1
  50   22   71 1
  51   22   72 1
  52   23   73 1
  53   23   74 1
  54   24   44 1
  55   24   75 1
  56   24   76 1
  57   26   49 am
  58   26   28 1
  59   27   28 ar
  60   27   29 ar
  61   28   32 ar
  62   29   30 ar
  63   29   77 1
  64   30   31 ar
  65   30   33 1
  66   31   32 ar
  67   31   34 1
  68   32   78 1
  69   35   36 ar
  70   35   37 ar
  71   35   49 1
  72   36   42 1
  73   36   40 ar
  74   37   38 ar
  75   37   79 1
  76   38   39 ar
  77   38   80 1
  78   39   40 ar
  79   39   41 1
  80   40   81 1
  81   42   43 1
  82   43   82 1
  83   43   83 1
  84   43   84 1
  85   44   45 1
  86   44   85 1
  87   44   86 1
  88   45   87 1
  89   45   88 1
  90   45   89 1
  91   46   48 1
  92   47   48 1
  93   47   90 1
  94   47   91 1
  95   47   92 1
  96   48   93 1
  97   48   94 1
  98   49   50 2
  99   49   51 2

#	End of record

