#	Name: ASD01917594
#	Creating user name:	WinNT
#	Creation time:	15. 06. 2019 20:09

#	Modifying user name:	WinNT
#	Modification time:	15. 06. 2019 20:09

#	Program:	/corina/corina34_cracker 3.40 0067  02.08.2006

@<TRIPOS>MOLECULE
ASD01917594
  26   27    0    0    0
SMALL
NO_CHARGES


@<TRIPOS>ATOM
   1 C1            -0.0170     1.4023     0.0098 C.2     
   2 C2             0.0021    -0.0041     0.0020 C.2     
   3 C3             1.1988    -0.6538    -0.0129 C.2     
   4 C4             2.3902     0.0874    -0.0203 C.2     
   5 C5             2.3505     1.4392    -0.0127 C.2     
   6 N6             1.1602     2.0957     0.0022 N.pl3   
   7 N7             0.8136     3.4542     0.0124 N.2     
   8 C8            -0.4974     3.5178     0.0250 C.2     
   9 N9            -1.0028     2.2930     0.0186 N.2     
  10 I10            4.2362    -0.9030    -0.0426 I       
  11 C11           -1.3048     4.7902     0.0390 C.3     
  12 C12           -0.9807     5.6136    -1.2091 C.3     
  13 C13           -2.7959     4.4479     0.0512 C.3     
  14 C14           -0.9574     5.6009     1.2892 C.3     
  15 H15           -0.9223    -0.5626     0.0082 H       
  16 H16            1.2307    -1.7333    -0.0187 H       
  17 H17            3.2723     2.0019    -0.0181 H       
  18 H18           -1.2282     5.0361    -2.0998 H       
  19 H19           -1.5647     6.5339    -1.1990 H       
  20 H20            0.0816     5.8575    -1.2178 H       
  21 H21           -3.0268     3.8613     0.9404 H       
  22 H22           -3.3799     5.3682     0.0614 H       
  23 H23           -3.0434     3.8703    -0.8394 H       
  24 H24            0.1050     5.8448     1.2805 H       
  25 H25           -1.5413     6.5212     1.2994 H       
  26 H26           -1.1882     5.0143     2.1784 H       
@<TRIPOS>BOND
   1    1    2 1
   2    1    6 1
   3    1    9 2
   4    2    3 2
   5    2   15 1
   6    3    4 1
   7    3   16 1
   8    4    5 2
   9    4   10 1
  10    5    6 1
  11    5   17 1
  12    6    7 1
  13    7    8 2
  14    8    9 1
  15    8   11 1
  16   11   12 1
  17   11   14 1
  18   11   13 1
  19   12   18 1
  20   12   19 1
  21   12   20 1
  22   13   21 1
  23   13   22 1
  24   13   23 1
  25   14   24 1
  26   14   25 1
  27   14   26 1

#	End of record

