#	Name: ASD00431202
#	Creating user name:	WinNT
#	Creation time:	15. 06. 2019 18:35

#	Modifying user name:	WinNT
#	Modification time:	15. 06. 2019 18:35

#	Program:	/corina/corina34_cracker 3.40 0067  02.08.2006

@<TRIPOS>MOLECULE
ASD00431202
  48   50    0    0    0
SMALL
NO_CHARGES


@<TRIPOS>ATOM
   1 C1            -0.3796     1.6868    -0.5733 C.2     
   2 C2            -0.5986     0.2329    -0.9041 C.3     
   3 O3             0.7314     2.0842    -0.2930 O.2     
   4 N4            -1.4174     2.5464    -0.5945 N.am    
   5 C5            -1.2046     3.9597    -0.2729 C.3     
   6 C6            -0.7507     4.7058    -1.5292 C.3     
   7 O7            -3.7064     4.3945    -0.3040 O.3     
   8 N8            -4.5313     5.0100     0.3377 N.2     
   9 C9            -3.9518     5.6289     1.3376 C.2     
  10 N10           -2.6304     5.3403     1.2722 N.2     
  11 C11           -2.4921     4.5599     0.2302 C.2     
  12 S12           -3.8250     7.3085     3.6845 S.3     
  13 C13           -5.3274     7.9493     4.1889 C.2     
  14 N14           -6.2758     7.5490     3.3986 N.2     
  15 C15           -5.9336     6.7630     2.4021 C.2     
  16 C16           -4.6150     6.4805     2.3449 C.2     
  17 O17           -5.5028     8.7590     5.2600 O.3     
  18 C18           -6.7741     9.1027     5.5990 C.ar    
  19 C19           -7.5898     8.1878     6.2488 C.ar    
  20 C20           -8.8807     8.5362     6.5938 C.ar    
  21 C21           -9.3623     9.8029     6.2902 C.ar    
  22 C22           -8.5452    10.7182     5.6397 C.ar    
  23 C23           -7.2527    10.3700     5.3000 C.ar    
  24 N24          -10.6702    10.1566     6.6390 N.pl3   
  25 C25          -11.1779    11.4929     6.3185 C.3     
  26 C26          -12.7034    11.4464     6.2098 C.3     
  27 C27          -10.7750    12.4703     7.4244 C.3     
  28 H28           -0.8307    -0.3164     0.0084 H       
  29 H29           -1.4285     0.1407    -1.6047 H       
  30 H30            0.3050    -0.1772    -1.3552 H       
  31 H31           -2.3053     2.2293    -0.8226 H       
  32 H32           -0.4382     4.0457     0.4974 H       
  33 H33           -0.5923     5.7574    -1.2900 H       
  34 H34            0.1805     4.2717    -1.8931 H       
  35 H35           -1.5171     4.6199    -2.2996 H       
  36 H36           -6.6470     6.3761     1.6895 H       
  37 H37           -7.2152     7.2026     6.4845 H       
  38 H38           -9.5157     7.8238     7.0993 H       
  39 H39           -8.9191    11.7033     5.4029 H       
  40 H40           -6.6157    11.0832     4.7982 H       
  41 H41          -11.2409     9.5170     7.0930 H       
  42 H42          -10.7560    11.8239     5.3695 H       
  43 H43          -13.1253    11.1153     7.1587 H       
  44 H44          -13.0811    12.4406     5.9713 H       
  45 H45          -12.9904    10.7500     5.4219 H       
  46 H46          -11.1528    13.4646     7.1860 H       
  47 H47          -11.1970    12.1393     8.3734 H       
  48 H48           -9.6883    12.5035     7.5019 H       
@<TRIPOS>BOND
   1    1    2 1
   2    1    3 2
   3    1    4 am
   4    2   28 1
   5    2   29 1
   6    2   30 1
   7    4    5 1
   8    4   31 1
   9    5    6 1
  10    5   11 1
  11    5   32 1
  12    6   33 1
  13    6   34 1
  14    6   35 1
  15    7    8 1
  16    7   11 1
  17    8    9 2
  18    9   10 1
  19    9   16 1
  20   10   11 2
  21   12   13 1
  22   12   16 1
  23   13   14 2
  24   13   17 1
  25   14   15 1
  26   15   16 2
  27   15   36 1
  28   17   18 1
  29   18   19 ar
  30   18   23 ar
  31   19   20 ar
  32   19   37 1
  33   20   21 ar
  34   20   38 1
  35   21   22 ar
  36   21   24 1
  37   22   23 ar
  38   22   39 1
  39   23   40 1
  40   24   25 1
  41   24   41 1
  42   25   26 1
  43   25   27 1
  44   25   42 1
  45   26   43 1
  46   26   44 1
  47   26   45 1
  48   27   46 1
  49   27   47 1
  50   27   48 1

#	End of record

