#	Name: ASD03550003
#	Creating user name:	WinNT
#	Creation time:	15. 06. 2019 20:43

#	Modifying user name:	WinNT
#	Modification time:	15. 06. 2019 20:43

#	Program:	/corina/corina34_cracker 3.40 0067  02.08.2006

@<TRIPOS>MOLECULE
ASD03550003
  31   31    0    0    0
SMALL
NO_CHARGES


@<TRIPOS>ATOM
   1 C1            -0.0184     1.5028     0.0103 C.2     
   2 N2             1.3055    -0.4734    -0.4867 N.3     
   3 C3             0.0021    -0.0041     0.0020 C.3     
   4 C4            -0.2279    -0.5251     1.4221 C.3     
   5 C5            -0.3300    -2.0284     1.3953 C.ar    
   6 C6             0.8076    -2.8001     1.5442 C.ar    
   7 C7             0.7166    -4.1783     1.5200 C.ar    
   8 C8            -0.5173    -4.7880     1.3460 C.ar    
   9 C9            -1.6572    -4.0114     1.1968 C.ar    
  10 C10           -1.5617    -2.6336     1.2274 C.ar    
  11 O11            1.0236     2.1234     0.0037 O.2     
  12 N12           -1.1946     2.1607     0.0195 N.am    
  13 C13           -1.2145     3.6256     0.0275 C.3     
  14 C14           -2.6419     4.1085     0.0369 C.2     
  15 O15           -2.9051     5.4247     0.0453 O.3     
  16 O16           -3.5496     3.3110     0.0369 O.2     
  17 O17           -0.6093    -6.1436     1.3214 O.3     
  18 H18            2.0536    -0.1430     0.1043 H       
  19 H19            1.3222    -1.4794    -0.5627 H       
  20 H20           -0.7864    -0.3745    -0.6531 H       
  21 H21            0.6068    -0.2288     2.0574 H       
  22 H22           -1.1526    -0.1051     1.8179 H       
  23 H23            1.7680    -2.3250     1.6792 H       
  24 H24            1.6055    -4.7807     1.6360 H       
  25 H25           -2.6190    -4.4836     1.0612 H       
  26 H26           -2.4494    -2.0286     1.1160 H       
  27 H27           -2.0280     1.6644     0.0207 H       
  28 H28           -0.7014     3.9910     0.9171 H       
  29 H29           -0.7098     4.0007    -0.8628 H       
  30 H30           -3.8360     5.6863     0.0512 H       
  31 H31           -0.7555    -6.5438     2.1895 H       
@<TRIPOS>BOND
   1    1    3 1
   2    1   11 2
   3    1   12 am
   4    2    3 1
   5    2   18 1
   6    2   19 1
   7    3    4 1
   8    3   20 1
   9    4    5 1
  10    4   21 1
  11    4   22 1
  12    5    6 ar
  13    5   10 ar
  14    6    7 ar
  15    6   23 1
  16    7    8 ar
  17    7   24 1
  18    8    9 ar
  19    8   17 1
  20    9   10 ar
  21    9   25 1
  22   10   26 1
  23   12   13 1
  24   12   27 1
  25   13   14 1
  26   13   28 1
  27   13   29 1
  28   14   15 1
  29   14   16 2
  30   15   30 1
  31   17   31 1

#	End of record

