#	Name: ASD01812757
#	Creating user name:	WinNT
#	Creation time:	15. 06. 2019 19:29

#	Modifying user name:	WinNT
#	Modification time:	15. 06. 2019 19:29

#	Program:	/corina/corina34_cracker 3.40 0067  02.08.2006

@<TRIPOS>MOLECULE
ASD01812757
  53   57    0    0    0
SMALL
NO_CHARGES


@<TRIPOS>ATOM
   1 N1            -0.0158     1.3146     0.0093 N.ar    
   2 C2             0.0021    -0.0041     0.0020 C.ar    
   3 C3             1.1989    -0.7034    -0.0127 C.ar    
   4 C4             2.3830    -0.0016    -0.0202 C.ar    
   5 C5             2.3452     1.3975    -0.0128 C.ar    
   6 C6             1.0957     2.0332     0.0025 C.ar    
   7 C7             3.8374    -0.3895    -0.0363 C.3     
   8 N8             4.5957     0.8678    -0.0373 N.am    
   9 C9             3.7284     1.8956    -0.0237 C.2     
  10 C10            6.0561     0.9837    -0.0504 C.3     
  11 C11            6.5435     1.0303    -1.4757 C.ar    
  12 C12            6.6716     2.2471    -2.1207 C.ar    
  13 C13            7.1176     2.2954    -3.4260 C.ar    
  14 C14            7.4393     1.1159    -4.0936 C.ar    
  15 C15            7.3089    -0.1069    -3.4392 C.ar    
  16 C16            6.8666    -0.1435    -2.1322 C.ar    
  17 O17            1.0259     3.3855     0.0100 O.3     
  18 O18            4.0434     3.0700    -0.0209 O.2     
  19 C19           -0.2059     3.9610     0.0244 C.ar    
  20 C20            7.9191     1.1618    -5.4980 C.2     
  21 C21           -0.8245     4.2492     1.2324 C.ar    
  22 C22           -2.0775     4.8346     1.2441 C.ar    
  23 C23           -2.7143     5.1324     0.0540 C.ar    
  24 C24           -2.1012     4.8462    -1.1521 C.ar    
  25 C25           -0.8453     4.2669    -1.1704 C.ar    
  26 F26           -0.2437     3.9934    -2.3488 F       
  27 Cl27          -0.0265     3.8748     2.7280 Cl      
  28 C28            7.3315     1.8348    -6.5291 C.2     
  29 C29            9.0670     0.5234    -6.0067 C.2     
  30 N30            9.1542     0.8000    -7.2808 N.2     
  31 N31            8.0792     1.6256    -7.6314 N.pl3   
  32 C32           10.0272    -0.3299    -5.2187 C.3     
  33 C33            7.8103     2.1650    -8.9667 C.3     
  34 H34           -0.9309    -0.5480     0.0080 H       
  35 H35            1.2022    -1.7834    -0.0178 H       
  36 H36            4.0797    -0.9726     0.8521 H       
  37 H37            4.0624    -0.9636    -0.9351 H       
  38 H38            6.3528     1.8971     0.4651 H       
  39 H39            6.4934     0.1227     0.4552 H       
  40 H40            6.4219     3.1610    -1.6022 H       
  41 H41            7.2166     3.2460    -3.9290 H       
  42 H42            7.5570    -1.0242    -3.9523 H       
  43 H43            6.7687    -1.0907    -1.6226 H       
  44 H44           -2.5592     5.0590     2.1844 H       
  45 H45           -3.6929     5.5891     0.0661 H       
  46 H46           -2.6013     5.0797    -2.0804 H       
  47 H47            6.4304     2.4274    -6.4727 H       
  48 H48            9.6983    -1.3687    -5.2480 H       
  49 H49           11.0236    -0.2519    -5.6537 H       
  50 H50           10.0542     0.0137    -4.1846 H       
  51 H51            8.3048     3.1303    -9.0750 H       
  52 H52            8.1905     1.4755    -9.7204 H       
  53 H53            6.7356     2.2906    -9.0982 H       
@<TRIPOS>BOND
   1    1    2 ar
   2    1    6 ar
   3    2    3 ar
   4    2   34 1
   5    3    4 ar
   6    3   35 1
   7    4    7 1
   8    4    5 ar
   9    5    6 ar
  10    5    9 1
  11    6   17 1
  12    7    8 1
  13    7   36 1
  14    7   37 1
  15    8    9 am
  16    8   10 1
  17    9   18 2
  18   10   11 1
  19   10   38 1
  20   10   39 1
  21   11   12 ar
  22   11   16 ar
  23   12   13 ar
  24   12   40 1
  25   13   14 ar
  26   13   41 1
  27   14   15 ar
  28   14   20 1
  29   15   16 ar
  30   15   42 1
  31   16   43 1
  32   17   19 1
  33   19   21 ar
  34   19   25 ar
  35   20   29 1
  36   20   28 2
  37   21   22 ar
  38   21   27 1
  39   22   23 ar
  40   22   44 1
  41   23   24 ar
  42   23   45 1
  43   24   25 ar
  44   24   46 1
  45   25   26 1
  46   28   31 1
  47   28   47 1
  48   29   30 2
  49   29   32 1
  50   30   31 1
  51   31   33 1
  52   32   48 1
  53   32   49 1
  54   32   50 1
  55   33   51 1
  56   33   52 1
  57   33   53 1

#	End of record

