#	Name: ASD02198692
#	Creating user name:	WinNT
#	Creation time:	15. 06. 2019 20:20

#	Modifying user name:	WinNT
#	Modification time:	15. 06. 2019 20:20

#	Program:	/corina/corina34_cracker 3.40 0067  02.08.2006

@<TRIPOS>MOLECULE
ASD02198692
  54   58    0    0    0
SMALL
NO_CHARGES


@<TRIPOS>ATOM
   1 C1            -0.0637     1.5375     0.0790 C.2     
   2 C2            -0.1103     0.1894     0.2265 C.2     
   3 N3             1.0135    -0.5567     0.1376 N.pl3   
   4 N4             2.1733    -0.0587    -0.0863 N.2     
   5 C5             2.3594     1.2340    -0.2488 C.2     
   6 C6             1.1965     2.1320    -0.1699 C.2     
   7 C7             0.9054    -1.9425     0.2987 C.ar    
   8 C8             1.6789    -2.5960     1.2572 C.ar    
   9 C9             1.5697    -3.9675     1.4143 C.ar    
  10 C10            0.6907    -4.6886     0.6172 C.ar    
  11 C11           -0.0795    -4.0348    -0.3378 C.ar    
  12 C12            0.0234    -2.6673    -0.4922 C.ar    
  13 C13            3.7104     1.7733    -0.5049 C.2     
  14 N14            4.0881     2.5471    -1.5662 N.pl3   
  15 N15            5.4504     2.8366    -1.4196 N.2     
  16 C16            5.8859     2.2688    -0.3233 C.2     
  17 C17            4.8257     1.5961     0.2842 C.2     
  18 C18            3.2611     2.9733    -2.6132 C.ar    
  19 C19            3.3513     4.2764    -3.0848 C.ar    
  20 C20            2.5348     4.6935    -4.1176 C.ar    
  21 C21            1.6282     3.8150    -4.6822 C.ar    
  22 C22            1.5356     2.5170    -4.2146 C.ar    
  23 C23            2.3533     2.0921    -3.1858 C.ar    
  24 O24            1.3136     3.3400    -0.3137 O.2     
  25 N25            0.5804    -6.0721     0.7748 N.3     
  26 C26            1.0835    -6.7832    -0.4198 C.3     
  27 C27           -0.8217    -6.4681     1.0011 C.3     
  28 C28           -1.1904    -7.4907    -0.0942 C.3     
  29 C29            0.1904    -8.0436    -0.5352 C.3     
  30 F30           -1.9875    -8.5131     0.4318 F       
  31 F31           -1.8350    -6.8596    -1.1634 F       
  32 O32            2.5389    -1.8882     2.0359 O.3     
  33 C33            3.2993    -2.6234     2.9967 C.3     
  34 H34           -0.9597     2.1369     0.1449 H       
  35 H35           -1.0571    -0.2936     0.4177 H       
  36 H36            2.1681    -4.4759     2.1558 H       
  37 H37           -0.7627    -4.5974    -0.9568 H       
  38 H38           -0.5762    -2.1615    -1.2346 H       
  39 H39            6.8979     2.3166     0.0509 H       
  40 H40            4.8722     1.0324     1.2043 H       
  41 H41            4.0589     4.9630    -2.6440 H       
  42 H42            2.6042     5.7069    -4.4846 H       
  43 H43            0.9908     4.1436    -5.4898 H       
  44 H44            0.8263     1.8334    -4.6573 H       
  45 H45            2.2808     1.0781    -2.8213 H       
  46 H46            0.9751    -6.1589    -1.3067 H       
  47 H47            2.1262    -7.0684    -0.2806 H       
  48 H48           -0.9236    -6.9257     1.9851 H       
  49 H49           -1.4702    -5.5951     0.9268 H       
  50 H50            0.1560    -8.4051    -1.5630 H       
  51 H51            0.5315    -8.8271     0.1414 H       
  52 H52            3.9439    -1.9402     3.5498 H       
  53 H53            2.6228    -3.1249     3.6887 H       
  54 H54            3.9113    -3.3659     2.4846 H       
@<TRIPOS>BOND
   1    1    2 2
   2    1    6 1
   3    1   34 1
   4    2    3 1
   5    2   35 1
   6    3    4 1
   7    3    7 1
   8    4    5 2
   9    5    6 1
  10    5   13 1
  11    6   24 2
  12    7    8 ar
  13    7   12 ar
  14    8    9 ar
  15    8   32 1
  16    9   10 ar
  17    9   36 1
  18   10   11 ar
  19   10   25 1
  20   11   12 ar
  21   11   37 1
  22   12   38 1
  23   13   14 1
  24   13   17 2
  25   14   15 1
  26   14   18 1
  27   15   16 2
  28   16   17 1
  29   16   39 1
  30   17   40 1
  31   18   19 ar
  32   18   23 ar
  33   19   20 ar
  34   19   41 1
  35   20   21 ar
  36   20   42 1
  37   21   22 ar
  38   21   43 1
  39   22   23 ar
  40   22   44 1
  41   23   45 1
  42   25   27 1
  43   25   26 1
  44   26   29 1
  45   26   46 1
  46   26   47 1
  47   27   28 1
  48   27   48 1
  49   27   49 1
  50   28   29 1
  51   28   30 1
  52   28   31 1
  53   29   50 1
  54   29   51 1
  55   32   33 1
  56   33   52 1
  57   33   53 1
  58   33   54 1

#	End of record

