#	Name: ASD05430649
#	Creating user name:	WinNT
#	Creation time:	15. 06. 2019 21:00

#	Modifying user name:	WinNT
#	Modification time:	15. 06. 2019 21:00

#	Program:	/corina/corina34_cracker 3.40 0067  02.08.2006

@<TRIPOS>MOLECULE
ASD05430649
  34   35    0    0    0
SMALL
NO_CHARGES


@<TRIPOS>ATOM
   1 N1            -0.0159     1.3179     0.0093 N.ar    
   2 C2             0.0021    -0.0041     0.0020 C.ar    
   3 C3             1.2121    -0.6965    -0.0133 C.ar    
   4 C4             2.3995     0.0231    -0.0207 C.ar    
   5 C5             2.3322     1.4090    -0.0126 C.ar    
   6 C6             1.0971     2.0265     0.0025 C.ar    
   7 C7             3.5945     2.2321    -0.0198 C.3     
   8 C8             3.6163     3.1216    -1.2645 C.3     
   9 C9             3.6392     3.1081     1.2338 C.3     
  10 N10           -1.2037    -0.7144     0.0102 N.pl3   
  11 C11           -2.3584    -0.3533     0.6561 C.2     
  12 C12           -1.4536    -1.8892    -0.6252 C.2     
  13 N13           -2.6877    -2.2380    -0.3834 N.2     
  14 C14           -3.2655    -1.3147     0.3996 C.2     
  15 C15           -4.6850    -1.3474     0.9045 C.3     
  16 O16            1.2291    -2.0559    -0.0203 O.3     
  17 C17            2.5103    -2.6886    -0.0359 C.3     
  18 H18            3.3530    -0.4840    -0.0322 H       
  19 H19            1.0414     3.1051     0.0088 H       
  20 H20            4.4601     1.5698    -0.0313 H       
  21 H21            4.5294     3.7170    -1.2697 H       
  22 H22            3.5845     2.4975    -2.1576 H       
  23 H23            2.7507     3.7839    -1.2530 H       
  24 H24            3.6237     2.4745     2.1206 H       
  25 H25            4.5523     3.7035     1.2287 H       
  26 H26            2.7736     3.7705     1.2453 H       
  27 H27           -2.5107     0.5319     1.2557 H       
  28 H28           -0.7492    -2.4414    -1.2296 H       
  29 H29           -4.7186    -1.8701     1.8604 H       
  30 H30           -5.0479    -0.3279     1.0349 H       
  31 H31           -5.3152    -1.8680     0.1834 H       
  32 H32            3.0549    -2.3843    -0.9297 H       
  33 H33            3.0723    -2.3932     0.8501 H       
  34 H34            2.3810    -3.7709    -0.0401 H       
@<TRIPOS>BOND
   1    1    2 ar
   2    1    6 ar
   3    2    3 ar
   4    2   10 1
   5    3    4 ar
   6    3   16 1
   7    4    5 ar
   8    4   18 1
   9    5    6 ar
  10    5    7 1
  11    6   19 1
  12    7    8 1
  13    7    9 1
  14    7   20 1
  15    8   21 1
  16    8   22 1
  17    8   23 1
  18    9   24 1
  19    9   25 1
  20    9   26 1
  21   10   11 1
  22   10   12 1
  23   11   14 2
  24   11   27 1
  25   12   13 2
  26   12   28 1
  27   13   14 1
  28   14   15 1
  29   15   29 1
  30   15   30 1
  31   15   31 1
  32   16   17 1
  33   17   32 1
  34   17   33 1
  35   17   34 1

#	End of record

