#	Name: ASD01883996
#	Creating user name:	WinNT
#	Creation time:	15. 06. 2019 19:47

#	Modifying user name:	WinNT
#	Modification time:	15. 06. 2019 19:47

#	Program:	/corina/corina34_cracker 3.40 0067  02.08.2006

@<TRIPOS>MOLECULE
ASD01883996
  46   49    0    0    0
SMALL
NO_CHARGES


@<TRIPOS>ATOM
   1 Cl1            0.0000     0.0000     0.0000 Cl      
   2 H2             0.0000     1.3700     0.0000 H       
   3 C3            13.6409    18.7705     5.8831 C.3     
   4 N4            13.6608    17.3057     5.8750 N.am    
   5 C5            12.4624    16.6064     5.8769 C.2     
   6 C6            11.1721    17.0468     5.8858 C.2     
   7 C7            10.3318    15.9206     5.8837 C.2     
   8 N8            11.0875    14.8424     5.8738 N.2     
   9 N9            12.4306    15.2450     5.8693 N.pl3   
  10 C10           13.6116    14.5095     5.8591 C.ar    
  11 C11           13.5887    13.1251     5.8507 C.ar    
  12 C12           14.7882    12.4171     5.8401 C.ar    
  13 C13           16.0086    13.0974     5.8379 C.ar    
  14 C14           16.0386    14.4633     5.8467 C.ar    
  15 C15           14.8445    15.1846     5.8569 C.ar    
  16 C16           14.8437    16.6579     5.8602 C.2     
  17 O17           15.8902    17.2784     5.8541 O.2     
  18 C18           14.7699    10.9350     5.8315 C.ar    
  19 C19           15.9677    10.2232     5.8267 C.ar    
  20 N20           15.9506     8.9027     5.8195 N.ar    
  21 C21           14.7927     8.2538     5.8169 C.ar    
  22 N22           14.7752     6.8655     5.8093 N.pl3   
  23 C23           13.5933     8.9662     5.8221 C.ar    
  24 N24           13.6092    10.2835     5.8339 N.ar    
  25 C25            8.8480    15.9425     5.8912 C.ar    
  26 C26            8.1667    17.1580     5.8958 C.ar    
  27 C27            6.7866    17.1726     5.9029 C.ar    
  28 C28            6.0799    15.9835     5.9059 C.ar    
  29 C29            6.7511    14.7741     5.9014 C.ar    
  30 C30            8.1310    14.7478     5.8881 C.ar    
  31 H31           14.6635    19.1478     5.8753 H       
  32 H32           13.1137    19.1316     5.0000 H       
  33 H33           13.1307    19.1221     6.7799 H       
  34 H34           10.8525    18.0785     5.8936 H       
  35 H35           12.6464    12.5974     5.8526 H       
  36 H36           16.9338    12.5402     5.8297 H       
  37 H37           16.9849    14.9837     5.8450 H       
  38 H38           16.9098    10.7513     5.8285 H       
  39 H39           15.6091     6.3700     5.8060 H       
  40 H40           13.9291     6.3912     5.8074 H       
  41 H41           12.6515     8.4377     5.8203 H       
  42 H42            8.7175    18.0869     5.8941 H       
  43 H43            6.2575    18.1141     5.9064 H       
  44 H44            5.0000    15.9995     5.9122 H       
  45 H45            6.1943    13.8486     5.9042 H       
  46 H46            8.6540    13.8030     5.8796 H       
@<TRIPOS>BOND
   1    1    2 1
   2    3    4 1
   3    3   31 1
   4    3   32 1
   5    3   33 1
   6    4   16 am
   7    4    5 1
   8    5    9 1
   9    5    6 2
  10    6    7 1
  11    6   34 1
  12    7    8 2
  13    7   25 1
  14    8    9 1
  15    9   10 1
  16   10   15 ar
  17   10   11 ar
  18   11   12 ar
  19   11   35 1
  20   12   13 ar
  21   12   18 1
  22   13   14 ar
  23   13   36 1
  24   14   15 ar
  25   14   37 1
  26   15   16 1
  27   16   17 2
  28   18   24 ar
  29   18   19 ar
  30   19   20 ar
  31   19   38 1
  32   20   21 ar
  33   21   22 1
  34   21   23 ar
  35   22   39 1
  36   22   40 1
  37   23   24 ar
  38   23   41 1
  39   25   30 ar
  40   25   26 ar
  41   26   27 ar
  42   26   42 1
  43   27   28 ar
  44   27   43 1
  45   28   29 ar
  46   28   44 1
  47   29   30 ar
  48   29   45 1
  49   30   46 1

#	End of record

