#	Name: ASD03092886
#	Creating user name:	WinNT
#	Creation time:	15. 06. 2019 20:33

#	Modifying user name:	WinNT
#	Modification time:	15. 06. 2019 20:33

#	Program:	/corina/corina34_cracker 3.40 0067  02.08.2006

@<TRIPOS>MOLECULE
ASD03092886
  46   49    0    0    0
SMALL
NO_CHARGES


@<TRIPOS>ATOM
   1 C1            -0.0187     1.5258     0.0104 C.3     
   2 C2             0.0021    -0.0041     0.0020 C.3     
   3 H3            -1.0205    -0.3814     0.0098 H       
   4 N4             0.6878    -0.4765    -1.2033 N.am    
   5 C5             0.0062    -0.6081    -2.3585 C.2     
   6 O6            -1.1778    -0.3348    -2.4004 O.2     
   7 C7             0.6966    -1.0839    -3.5722 C.2     
   8 C8             0.1487    -1.2636    -4.8130 C.2     
   9 C9             1.2296    -1.7260    -5.5961 C.2     
  10 N10            2.2635    -1.7795    -4.8077 N.2     
  11 O11            1.9947    -1.4234    -3.6842 O.3     
  12 C12            1.1926    -2.0872    -7.0587 C.3     
  13 H13            2.1784    -1.9736    -7.5097 H       
  14 C14            0.6566    -3.5311    -7.2580 C.3     
  15 C15            0.0377    -3.4222    -8.6743 C.3     
  16 O16           -0.5268    -2.1027    -8.7366 O.3     
  17 C17            0.1443    -1.2370    -7.8082 C.3     
  18 C18            0.7309    -0.5033     1.2229 C.ar    
  19 C19            2.1187    -0.5114     1.2408 C.ar    
  20 C20            2.8046    -0.9641     2.3468 C.ar    
  21 C21            2.1015    -1.4176     3.4578 C.ar    
  22 N22            2.4838    -1.9184     4.6821 N.pl3   
  23 H23            3.4013    -2.0380     4.9734 H       
  24 C24            1.3768    -2.2218     5.4269 C.2     
  25 C25            1.4021    -2.7913     6.8219 C.3     
  26 C26            0.2648    -1.9364     4.7312 C.2     
  27 C27            0.6947    -1.4069     3.4348 C.ar    
  28 C28            0.0202    -0.9391     2.3057 C.ar    
  29 H29            1.0039     1.9031     0.0027 H       
  30 H30           -0.5459     1.8868    -0.8726 H       
  31 H31           -0.5289     1.8773     0.9072 H       
  32 H32            1.6324    -0.6946    -1.1699 H       
  33 H33           -0.8720    -1.0923    -5.1215 H       
  34 H34            1.4688    -4.2577    -7.2391 H       
  35 H35           -0.1030    -3.7742    -6.5150 H       
  36 H36            0.8098    -3.5396    -9.4347 H       
  37 H37           -0.7411    -4.1734    -8.8057 H       
  38 H38           -0.5751    -0.8275    -7.0991 H       
  39 H39            0.6395    -0.4270    -8.3438 H       
  40 H40            2.6665    -0.1597     0.3790 H       
  41 H41            3.8846    -0.9672     2.3507 H       
  42 H42            1.4092    -1.9771     7.5466 H       
  43 H43            0.5179    -3.4092     6.9782 H       
  44 H44            2.2976    -3.3994     6.9499 H       
  45 H45           -0.7537    -2.0716     5.0642 H       
  46 H46           -1.0596    -0.9258     2.2863 H       
@<TRIPOS>BOND
   1    1    2 1
   2    1   29 1
   3    1   30 1
   4    1   31 1
   5    2    3 1
   6    2    4 1
   7    2   18 1
   8    4    5 am
   9    4   32 1
  10    5    6 2
  11    5    7 1
  12    7   11 1
  13    7    8 2
  14    8    9 1
  15    8   33 1
  16    9   10 2
  17    9   12 1
  18   10   11 1
  19   12   13 1
  20   12   17 1
  21   12   14 1
  22   14   15 1
  23   14   34 1
  24   14   35 1
  25   15   16 1
  26   15   36 1
  27   15   37 1
  28   16   17 1
  29   17   38 1
  30   17   39 1
  31   18   28 ar
  32   18   19 ar
  33   19   20 ar
  34   19   40 1
  35   20   21 ar
  36   20   41 1
  37   21   27 ar
  38   21   22 1
  39   22   23 1
  40   22   24 1
  41   24   25 1
  42   24   26 2
  43   25   42 1
  44   25   43 1
  45   25   44 1
  46   26   27 1
  47   26   45 1
  48   27   28 ar
  49   28   46 1

#	End of record

