#	Name: ASD00844792
#	Creating user name:	WinNT
#	Creation time:	15. 06. 2019 18:51

#	Modifying user name:	WinNT
#	Modification time:	15. 06. 2019 18:51

#	Program:	/corina/corina34_cracker 3.40 0067  02.08.2006

@<TRIPOS>MOLECULE
ASD00844792
 101  106    0    0    0
SMALL
NO_CHARGES


@<TRIPOS>ATOM
   1 F1             5.6871    -2.0315    -2.1435 F       
   2 C2             0.6603     1.3189    -0.6290 C.ar    
   3 C3             0.9379    -0.0215    -0.8538 C.ar    
   4 C4             0.8460    -0.9311     0.1899 C.ar    
   5 C5             0.4785    -0.5001     1.4497 C.ar    
   6 C6             0.2019     0.8366     1.6711 C.ar    
   7 C7             0.2931     1.7449     0.6330 C.ar    
   8 C8             1.1464    -2.3881    -0.0509 C.3     
   9 C9             0.8539    -3.2022     1.1915 C.2     
  10 C10            0.3359    -2.9119    -1.2381 C.3     
  11 C11           -1.1273    -2.6321    -1.0101 C.2     
  12 N12           -2.0422    -3.0598    -1.9025 N.am    
  13 O13           -1.4814    -2.0220    -0.0236 O.2     
  14 C14           -3.4575    -2.6927    -1.7580 C.3     
  15 C15           -4.3027    -3.9702    -1.7775 C.3     
  16 C16           -3.9864    -4.7672    -3.0451 C.3     
  17 C17           -2.5088    -5.1656    -3.0438 C.3     
  18 C18           -1.6423    -3.8970    -3.0418 C.3     
  19 N19           -4.8194    -5.9766    -3.0835 N.3     
  20 C20           -4.6293    -6.7072    -4.3443 C.3     
  21 C21           -5.4512    -7.9978    -4.3118 C.3     
  22 N22           -6.8684    -7.6680    -4.1061 N.3     
  23 C23           -7.0585    -6.9373    -2.8453 C.3     
  24 C24           -6.2366    -5.6467    -2.8778 C.3     
  25 C25           -7.7014    -8.8774    -4.1445 C.3     
  26 O26           -0.2228    -3.3226     1.7369 O.2     
  27 N27            2.0108    -3.7671     1.5760 N.am    
  28 C28            2.6256    -2.5921    -0.2846 C.ar    
  29 C29            3.0701    -3.4293     0.7311 C.ar    
  30 C30            3.4943    -2.1242    -1.2446 C.ar    
  31 C31            4.8308    -2.4886    -1.2038 C.ar    
  32 C32            5.2859    -3.3231    -0.1955 C.ar    
  33 C33            4.4145    -3.7923     0.7673 C.ar    
  34 Cl34           6.9596    -3.7808    -0.1425 Cl      
  35 C35            1.8747    -6.4020     2.3590 C.ar    
  36 C36            0.6239    -6.7668     1.8818 C.ar    
  37 C37            2.8961    -7.3318     2.4050 C.ar    
  38 C38            2.6748    -8.6262     1.9759 C.ar    
  39 C39            1.4254    -8.9960     1.4977 C.ar    
  40 C40            0.3992    -8.0654     1.4510 C.ar    
  41 O41            1.2083   -10.2696     1.0762 O.3     
  42 O42           -0.3802    -5.8521     1.8372 O.3     
  43 C43            2.3108   -11.1754     1.1532 C.3     
  44 C44           -1.6415    -6.2974     1.3344 C.3     
  45 C45           -2.6391    -5.1377     1.3604 C.3     
  46 C46           -9.1195    -8.5348    -3.6834 C.3     
  47 C47           -9.9870    -9.7944    -3.7233 C.3     
  48 O48            1.2988    -0.4431    -2.0943 O.3     
  49 C49            1.2748     0.5283    -3.1421 C.3     
  50 C50            1.7899    -0.1048    -4.4363 C.3     
  51 F51            3.0670    -0.6337    -4.2206 F       
  52 F52            0.9221    -1.1281    -4.8324 F       
  53 S53            2.1631    -4.7501     2.8999 S.o2    
  54 O54            3.5279    -4.6883     3.2907 O.2     
  55 O55            1.0897    -4.4198     3.7705 O.2     
  56 H56            0.7354     2.0296    -1.4388 H       
  57 H57            0.4069    -1.2077     2.2624 H       
  58 H58           -0.0860     1.1715     2.6567 H       
  59 H59            0.0766     2.7883     0.8084 H       
  60 H60            0.6634    -2.4129    -2.1501 H       
  61 H61            0.4892    -3.9866    -1.3369 H       
  62 H62           -3.6050    -2.1713    -0.8123 H       
  63 H63           -3.7535    -2.0461    -2.5841 H       
  64 H64           -4.0696    -4.5740    -0.9004 H       
  65 H65           -5.3604    -3.7068    -1.7678 H       
  66 H66           -4.1963    -4.1539    -3.9214 H       
  67 H67           -2.2926    -5.7582    -2.1548 H       
  68 H68           -2.2896    -5.7531    -3.9354 H       
  69 H69           -1.7915    -3.3512    -3.9734 H       
  70 H70           -0.5924    -4.1718    -2.9411 H       
  71 H71           -4.9594    -6.0867    -5.1775 H       
  72 H72           -3.5741    -6.9510    -4.4678 H       
  73 H73           -5.3346    -8.5271    -5.2575 H       
  74 H74           -5.1029    -8.6304    -3.4953 H       
  75 H75           -8.1137    -6.6935    -2.7218 H       
  76 H76           -6.7284    -7.5578    -2.0121 H       
  77 H77           -6.3532    -5.1174    -1.9321 H       
  78 H78           -6.5849    -5.0142    -3.6943 H       
  79 H79           -7.7340    -9.2639    -5.1631 H       
  80 H80           -7.2766    -9.6322    -3.4828 H       
  81 H81            3.1347    -1.4743    -2.0287 H       
  82 H82            4.7760    -4.4424     1.5503 H       
  83 H83            3.8690    -7.0460     2.7767 H       
  84 H84            3.4748    -9.3509     2.0121 H       
  85 H85           -0.5738    -8.3513     1.0796 H       
  86 H86            3.1322   -10.8007     0.5424 H       
  87 H87            2.6384   -11.2617     2.1892 H       
  88 H88            2.0028   -12.1546     0.7868 H       
  89 H89           -1.5204    -6.6496     0.3099 H       
  90 H90           -2.0140    -7.1111     1.9566 H       
  91 H91           -3.6012    -5.4773     0.9768 H       
  92 H92           -2.7602    -4.7855     2.3848 H       
  93 H93           -2.2666    -4.3240     0.7381 H       
  94 H94           -9.0869    -8.1482    -2.6648 H       
  95 H95           -9.5443    -7.7799    -4.3451 H       
  96 H96           -9.5622   -10.5493    -3.0617 H       
  97 H97          -10.9973    -9.5503    -3.3948 H       
  98 H98          -10.0196   -10.1810    -4.7420 H       
  99 H99            0.2531     0.8778    -3.2903 H       
 100 H100           1.9113     1.3706    -2.8713 H       
 101 H101           1.8380     0.6536    -5.2177 H       
@<TRIPOS>BOND
   1    1   31 1
   2    2    3 ar
   3    2    7 ar
   4    2   56 1
   5    3    4 ar
   6    3   48 1
   7    4    5 ar
   8    4    8 1
   9    5    6 ar
  10    5   57 1
  11    6    7 ar
  12    6   58 1
  13    7   59 1
  14    8    9 1
  15    8   10 1
  16    8   28 1
  17    9   26 2
  18    9   27 am
  19   10   11 1
  20   10   60 1
  21   10   61 1
  22   11   12 am
  23   11   13 2
  24   12   14 1
  25   12   18 1
  26   14   15 1
  27   14   62 1
  28   14   63 1
  29   15   16 1
  30   15   64 1
  31   15   65 1
  32   16   17 1
  33   16   19 1
  34   16   66 1
  35   17   18 1
  36   17   67 1
  37   17   68 1
  38   18   69 1
  39   18   70 1
  40   19   20 1
  41   19   24 1
  42   20   21 1
  43   20   71 1
  44   20   72 1
  45   21   22 1
  46   21   73 1
  47   21   74 1
  48   22   23 1
  49   22   25 1
  50   23   24 1
  51   23   75 1
  52   23   76 1
  53   24   77 1
  54   24   78 1
  55   25   46 1
  56   25   79 1
  57   25   80 1
  58   27   53 am
  59   27   29 1
  60   28   29 ar
  61   28   30 ar
  62   29   33 ar
  63   30   31 ar
  64   30   81 1
  65   31   32 ar
  66   32   33 ar
  67   32   34 1
  68   33   82 1
  69   35   36 ar
  70   35   37 ar
  71   35   53 1
  72   36   42 1
  73   36   40 ar
  74   37   38 ar
  75   37   83 1
  76   38   39 ar
  77   38   84 1
  78   39   40 ar
  79   39   41 1
  80   40   85 1
  81   41   43 1
  82   42   44 1
  83   43   86 1
  84   43   87 1
  85   43   88 1
  86   44   45 1
  87   44   89 1
  88   44   90 1
  89   45   91 1
  90   45   92 1
  91   45   93 1
  92   46   47 1
  93   46   94 1
  94   46   95 1
  95   47   96 1
  96   47   97 1
  97   47   98 1
  98   48   49 1
  99   49   50 1
 100   49   99 1
 101   49  100 1
 102   50   51 1
 103   50   52 1
 104   50  101 1
 105   53   54 2
 106   53   55 2

#	End of record

