#	Name: ASD01940282
#	Creating user name:	WinNT
#	Creation time:	15. 06. 2019 20:12

#	Modifying user name:	WinNT
#	Modification time:	15. 06. 2019 20:12

#	Program:	/corina/corina34_cracker 3.40 0067  02.08.2006

@<TRIPOS>MOLECULE
ASD01940282
  26   28    0    0    0
SMALL
NO_CHARGES


@<TRIPOS>ATOM
   1 C1            -0.0162     1.3421     0.0094 C.2     
   2 N2             0.0021    -0.0041     0.0020 N.am    
   3 C3             1.3321    -0.4255    -0.0129 C.ar    
   4 C4             2.1198     0.7263    -0.0143 C.ar    
   5 N5             1.2451     1.8129    -0.0001 N.am    
   6 C6             1.9344    -1.6761    -0.0261 C.ar    
   7 C7             3.3138    -1.7764    -0.0405 C.ar    
   8 C8             4.0969    -0.6328    -0.0418 C.ar    
   9 C9             3.5037     0.6182    -0.0285 C.ar    
  10 O10           -1.0205     2.0293     0.0181 O.2     
  11 C11            1.6163     3.1649     0.0032 C.ar    
  12 C12            1.7890     3.8431    -1.1987 C.ar    
  13 C13            2.1551     5.1764    -1.1912 C.ar    
  14 C14            2.3493     5.8345     0.0102 C.ar    
  15 C15            2.1785     5.1616     1.2062 C.ar    
  16 C16            1.8067     3.8307     1.2056 C.ar    
  17 I17            2.9041     7.8548     0.0176 I       
  18 F18            1.5997     3.2000    -2.3716 F       
  19 F19            4.2699     1.7310    -0.0303 F       
  20 F20            5.4437    -0.7392    -0.0559 F       
  21 F21            1.1746    -2.7932    -0.0244 F       
  22 H22           -0.7766    -0.5824     0.0063 H       
  23 H23            3.7824    -2.7494    -0.0504 H       
  24 H24            2.2899     5.7042    -2.1237 H       
  25 H25            2.3313     5.6783     2.1422 H       
  26 H26            1.6686     3.3078     2.1405 H       
@<TRIPOS>BOND
   1    1    2 am
   2    1    5 am
   3    1   10 2
   4    2    3 1
   5    2   22 1
   6    3    4 ar
   7    3    6 ar
   8    4    5 1
   9    4    9 ar
  10    5   11 1
  11    6    7 ar
  12    6   21 1
  13    7    8 ar
  14    7   23 1
  15    8    9 ar
  16    8   20 1
  17    9   19 1
  18   11   12 ar
  19   11   16 ar
  20   12   13 ar
  21   12   18 1
  22   13   14 ar
  23   13   24 1
  24   14   15 ar
  25   14   17 1
  26   15   16 ar
  27   15   25 1
  28   16   26 1

#	End of record

