#	Name: ASD01420174
#	Creating user name:	WinNT
#	Creation time:	15. 06. 2019 19:20

#	Modifying user name:	WinNT
#	Modification time:	15. 06. 2019 19:20

#	Program:	/corina/corina34_cracker 3.40 0067  02.08.2006

@<TRIPOS>MOLECULE
ASD01420174
  58   61    0    0    0
SMALL
NO_CHARGES


@<TRIPOS>ATOM
   1 C1            -0.0144     1.2120     0.0087 C.2     
   2 O2             0.1294     0.0133     0.1556 O.2     
   3 C3             1.0487     3.4380    -0.4778 C.3     
   4 N4             1.0607     2.0007    -0.1879 N.am    
   5 C5             2.4668     1.5860    -0.1523 C.3     
   6 C6             3.3109     2.8046    -0.4274 C.ar    
   7 C7             4.6904     2.9649    -0.5075 C.ar    
   8 C8             5.2281     4.2157    -0.7791 C.ar    
   9 C9             4.3912     5.2980    -0.9690 C.ar    
  10 C10            3.0212     5.1357    -0.8888 C.ar    
  11 C11            2.4806     3.8894    -0.6181 C.ar    
  12 N12            5.5338     1.8685    -0.3145 N.pl3   
  13 N13            9.5688     0.9759    -1.1355 N.3     
  14 C14            9.1946     1.0907     0.2799 C.3     
  15 C15            7.6777     0.9453     0.4212 C.3     
  16 C16            6.9865     2.0380    -0.3990 C.3     
  17 C17            7.4306     1.9264    -1.8601 C.3     
  18 C18            8.9546     2.0434    -1.9353 C.3     
  19 C19           -1.3642     1.8010     0.0396 C.ar    
  20 C20           -2.2645     1.4466     1.0560 C.ar    
  21 C21           -3.5306     2.0052     1.0778 C.ar    
  22 C22           -3.9066     2.9116     0.0972 C.ar    
  23 C23           -3.0150     3.2640    -0.9113 C.ar    
  24 C24           -1.7516     2.7199    -0.9404 C.ar    
  25 C25           -3.4328     4.2495    -1.9720 C.3     
  26 C26           -2.5002     5.4619    -1.9374 C.3     
  27 C27           -3.3523     3.5834    -3.3471 C.3     
  28 O28           -5.1493     3.4565     0.1214 O.3     
  29 O29           -1.8953     0.5594     2.0135 O.3     
  30 H30            0.5103     3.6229    -1.4074 H       
  31 H31            0.5702     3.9760     0.3405 H       
  32 H32            2.7085     1.1835     0.8314 H       
  33 H33            2.6486     0.8304    -0.9166 H       
  34 H34            6.2988     4.3423    -0.8413 H       
  35 H35            4.8078     6.2718    -1.1800 H       
  36 H36            2.3695     5.9839    -1.0375 H       
  37 H37            5.1577     0.9948    -0.1245 H       
  38 H38           10.5718     0.9734    -1.2452 H       
  39 H39            9.6895     0.3054     0.8512 H       
  40 H40            9.5030     2.0649     0.6592 H       
  41 H41            7.3703    -0.0342     0.0548 H       
  42 H42            7.3987     1.0461     1.4701 H       
  43 H43            7.2624     3.0170    -0.0072 H       
  44 H44            7.1193     0.9624    -2.2624 H       
  45 H45            6.9749     2.7282    -2.4412 H       
  46 H46            9.2641     3.0131    -1.5456 H       
  47 H47            9.2753     1.9500    -2.9729 H       
  48 H48           -4.2264     1.7350     1.8584 H       
  49 H49           -1.0609     2.9994    -1.7223 H       
  50 H50           -4.4566     4.5731    -1.7844 H       
  51 H51           -1.4764     5.1384    -2.1250 H       
  52 H52           -2.8024     6.1748    -2.7046 H       
  53 H53           -2.5575     5.9365    -0.9578 H       
  54 H54           -3.6545     4.2962    -4.1144 H       
  55 H55           -2.3285     3.2598    -3.5347 H       
  56 H56           -4.0167     2.7196    -3.3718 H       
  57 H57           -5.2084     4.2787     0.6270 H       
  58 H58           -1.4865     0.9660     2.7899 H       
@<TRIPOS>BOND
   1    1    2 2
   2    1    4 am
   3    1   19 1
   4    3    4 1
   5    3   11 1
   6    3   30 1
   7    3   31 1
   8    4    5 1
   9    5    6 1
  10    5   32 1
  11    5   33 1
  12    6    7 ar
  13    6   11 ar
  14    7    8 ar
  15    7   12 1
  16    8    9 ar
  17    8   34 1
  18    9   10 ar
  19    9   35 1
  20   10   11 ar
  21   10   36 1
  22   12   16 1
  23   12   37 1
  24   13   14 1
  25   13   18 1
  26   13   38 1
  27   14   15 1
  28   14   39 1
  29   14   40 1
  30   15   16 1
  31   15   41 1
  32   15   42 1
  33   16   17 1
  34   16   43 1
  35   17   18 1
  36   17   44 1
  37   17   45 1
  38   18   46 1
  39   18   47 1
  40   19   20 ar
  41   19   24 ar
  42   20   21 ar
  43   20   29 1
  44   21   22 ar
  45   21   48 1
  46   22   23 ar
  47   22   28 1
  48   23   24 ar
  49   23   25 1
  50   24   49 1
  51   25   26 1
  52   25   27 1
  53   25   50 1
  54   26   51 1
  55   26   52 1
  56   26   53 1
  57   27   54 1
  58   27   55 1
  59   27   56 1
  60   28   57 1
  61   29   58 1

#	End of record

