#	Name: ASD01885746
#	Creating user name:	WinNT
#	Creation time:	15. 06. 2019 19:50

#	Modifying user name:	WinNT
#	Modification time:	15. 06. 2019 19:50

#	Program:	/corina/corina34_cracker 3.40 0067  02.08.2006

@<TRIPOS>MOLECULE
ASD01885746
  67   70    0    0    0
SMALL
NO_CHARGES


@<TRIPOS>ATOM
   1 C1            -0.0160     1.3291     0.0093 C.ar    
   2 C2            -1.2522     2.0239     0.0189 C.ar    
   3 C3            -2.4598     1.2808     0.0210 C.ar    
   4 C4            -2.3703    -0.1044     0.0135 C.ar    
   5 C5            -1.1104    -0.7137     0.0043 C.ar    
   6 N6             0.0021    -0.0041     0.0020 N.ar    
   7 C7             1.1365     3.4282     0.0092 C.ar    
   8 C8            -0.0805     4.1063     0.0248 C.ar    
   9 C9            -1.2606     3.4245     0.0266 C.ar    
  10 C10           -3.7750     1.9611     0.0313 C.ar    
  11 C11           -1.0235    -2.1940    -0.0038 C.2     
  12 C12            2.4228     4.2133     0.0076 C.3     
  13 C13            1.1823     2.0683     0.0019 C.ar    
  14 N14            0.1812    -2.7982    -0.0132 N.am    
  15 O15           -2.0383    -2.8621    -0.0018 O.2     
  16 C16           -4.7577     1.5985    -0.8903 C.ar    
  17 C17           -5.9812     2.2347    -0.8763 C.ar    
  18 C18           -6.2354     3.2328     0.0512 C.ar    
  19 C19           -5.2623     3.5968     0.9685 C.ar    
  20 C20           -4.0376     2.9626     0.9663 C.ar    
  21 F21           -7.4355     3.8531     0.0609 F       
  22 N22            2.8509     4.4547     1.3920 N.3     
  23 C23            4.2114     5.0057     1.4336 C.3     
  24 C24            4.6777     5.1075     2.8877 C.3     
  25 C25            3.7167     6.0118     3.6645 C.3     
  26 C26            2.2990     5.4419     3.5648 C.3     
  27 C27            1.9018     5.3303     2.0912 C.3     
  28 N28            4.1247     6.0664     5.0705 N.pl3   
  29 C29            4.4843     7.1874     5.7689 C.2     
  30 C30            4.7830     6.7880     7.0198 C.2     
  31 N31            4.6104     5.4594     7.0835 N.2     
  32 C32            4.2106     5.0211     5.9212 C.2     
  33 C33            5.2323     7.6778     8.1500 C.3     
  34 H34           -3.2662    -0.7075     0.0151 H       
  35 H35           -0.0888     5.1862     0.0355 H       
  36 H36           -2.1976     3.9615     0.0335 H       
  37 H37            3.1928     3.6481    -0.5175 H       
  38 H38            2.2656     5.1673    -0.4957 H       
  39 H39            2.1340     1.5579    -0.0092 H       
  40 H40            0.9913    -2.2648    -0.0147 H       
  41 H41            0.2380    -3.7665    -0.0184 H       
  42 H42           -4.5605     0.8212    -1.6137 H       
  43 H43           -6.7425     1.9551    -1.5896 H       
  44 H44           -5.4648     4.3756     1.6888 H       
  45 H45           -3.2799     3.2470     1.6815 H       
  46 H46            4.8854     4.3510     0.8811 H       
  47 H47            4.2159     5.9970     0.9805 H       
  48 H48            4.6867     4.1146     3.3373 H       
  49 H49            5.6815     5.5310     2.9192 H       
  50 H50            3.7367     7.0152     3.2392 H       
  51 H51            2.2706     4.4543     4.0252 H       
  52 H52            1.6035     6.1043     4.0801 H       
  53 H53            1.9170     6.3202     1.6350 H       
  54 H54            0.8982     4.9115     2.0162 H       
  55 H55            4.5219     8.1979     5.3895 H       
  56 H56            3.9918     3.9919     5.6778 H       
  57 H57            4.3615     8.0329     8.7012 H       
  58 H58            5.8814     7.1142     8.8202 H       
  59 H59            5.7790     8.5300     7.7462 H       
  60 C60           11.8833    15.4371    14.7254 C.3     
  61 C61           11.9040    13.9073    14.7170 C.3     
  62 H62           12.9059    15.8144    14.7177 H       
  63 H63           11.3561    15.7982    13.8423 H       
  64 H64           11.3731    15.7886    15.6222 H       
  65 H65           12.4312    13.5462    15.6000 H       
  66 H66           10.8814    13.5300    14.7247 H       
  67 H67           12.4142    13.5558    13.8202 H       
@<TRIPOS>BOND
   1    1    6 ar
   2    1   13 ar
   3    1    2 ar
   4    2    3 ar
   5    2    9 ar
   6    3   10 1
   7    3    4 ar
   8    4    5 ar
   9    4   34 1
  10    5   11 1
  11    5    6 ar
  12    7   12 1
  13    7    8 ar
  14    7   13 ar
  15    8    9 ar
  16    8   35 1
  17    9   36 1
  18   10   16 ar
  19   10   20 ar
  20   11   14 am
  21   11   15 2
  22   12   22 1
  23   12   37 1
  24   12   38 1
  25   13   39 1
  26   14   40 1
  27   14   41 1
  28   16   17 ar
  29   16   42 1
  30   17   18 ar
  31   17   43 1
  32   18   19 ar
  33   18   21 1
  34   19   20 ar
  35   19   44 1
  36   20   45 1
  37   22   23 1
  38   22   27 1
  39   23   24 1
  40   23   46 1
  41   23   47 1
  42   24   25 1
  43   24   48 1
  44   24   49 1
  45   25   26 1
  46   25   28 1
  47   25   50 1
  48   26   27 1
  49   26   51 1
  50   26   52 1
  51   27   53 1
  52   27   54 1
  53   28   29 1
  54   28   32 1
  55   29   30 2
  56   29   55 1
  57   30   31 1
  58   30   33 1
  59   31   32 2
  60   32   56 1
  61   33   57 1
  62   33   58 1
  63   33   59 1
  64   60   61 1
  65   60   62 1
  66   60   63 1
  67   60   64 1
  68   61   65 1
  69   61   66 1
  70   61   67 1

#	End of record

