#	Name: ASD03240517
#	Creating user name:	WinNT
#	Creation time:	15. 06. 2019 20:35

#	Modifying user name:	WinNT
#	Modification time:	15. 06. 2019 20:35

#	Program:	/corina/corina34_cracker 3.40 0067  02.08.2006

@<TRIPOS>MOLECULE
ASD03240517
  43   45    0    0    0
SMALL
NO_CHARGES


@<TRIPOS>ATOM
   1 C1            -0.0167     1.3792     0.0096 C.ar    
   2 C2             0.0021    -0.0041     0.0020 C.ar    
   3 C3             1.1675     2.0878     0.0021 C.ar    
   4 C4             2.3833     1.4077    -0.0131 C.ar    
   5 C5             2.3965     0.0150    -0.0207 C.ar    
   6 C6             1.2061    -0.6841    -0.0127 C.ar    
   7 C7             3.6605     2.1649    -0.0217 C.2     
   8 C8             4.1265     2.9711     0.9754 C.2     
   9 N9             5.3147     3.4679     0.5765 N.pl3   
  10 N10            5.5958     2.9600    -0.6976 N.2     
  11 C11            4.6141     2.1766    -1.0582 C.2     
  12 C12            1.2188    -2.1911    -0.0208 C.3     
  13 C13            1.2374    -2.7087     1.4188 C.3     
  14 C14            1.1262    -4.2116     1.4137 C.ar    
  15 N15            2.4957    -2.3130     2.0653 N.3     
  16 C16           -0.0915    -4.8155     1.6654 C.ar    
  17 C17           -0.1935    -6.1940     1.6607 C.ar    
  18 C18            0.9222    -6.9688     1.4039 C.ar    
  19 C19            2.1397    -6.3649     1.1513 C.ar    
  20 C20            2.2408    -4.9862     1.1517 C.ar    
  21 C21            4.5148     1.4246    -2.3603 C.3     
  22 C22            3.4378     3.2550     2.2854 C.3     
  23 H23           -0.9598     1.9054     0.0169 H       
  24 H24           -0.9269    -0.5548     0.0079 H       
  25 H25            1.1518     3.1677     0.0077 H       
  26 H26            3.3363    -0.5171    -0.0325 H       
  27 H27            5.8776     4.0729     1.0844 H       
  28 H28            0.3269    -2.5591    -0.5278 H       
  29 H29            2.1067    -2.5441    -0.5454 H       
  30 H30            0.3973    -2.2842     1.9685 H       
  31 H31            2.5053    -2.5872     3.0362 H       
  32 H32            3.2902    -2.6945     1.5740 H       
  33 H33           -0.9632    -4.2102     1.8660 H       
  34 H34           -1.1447    -6.6658     1.8581 H       
  35 H35            0.8427    -8.0458     1.4009 H       
  36 H36            3.0115    -6.9702     0.9509 H       
  37 H37            3.1920    -4.5145     0.9543 H       
  38 H38            4.9741     0.4424    -2.2486 H       
  39 H39            3.4660     1.3063    -2.6326 H       
  40 H40            5.0325     1.9810    -3.1417 H       
  41 H41            3.7505     2.5201     3.0271 H       
  42 H42            3.7066     4.2542     2.6281 H       
  43 H43            2.3580     3.1962     2.1484 H       
@<TRIPOS>BOND
   1    1    2 ar
   2    1    3 ar
   3    1   23 1
   4    2    6 ar
   5    2   24 1
   6    3    4 ar
   7    3   25 1
   8    4    5 ar
   9    4    7 1
  10    5    6 ar
  11    5   26 1
  12    6   12 1
  13    7    8 2
  14    7   11 1
  15    8    9 1
  16    8   22 1
  17    9   10 1
  18    9   27 1
  19   10   11 2
  20   11   21 1
  21   12   13 1
  22   12   28 1
  23   12   29 1
  24   13   14 1
  25   13   15 1
  26   13   30 1
  27   14   16 ar
  28   14   20 ar
  29   15   31 1
  30   15   32 1
  31   16   17 ar
  32   16   33 1
  33   17   18 ar
  34   17   34 1
  35   18   19 ar
  36   18   35 1
  37   19   20 ar
  38   19   36 1
  39   20   37 1
  40   21   38 1
  41   21   39 1
  42   21   40 1
  43   22   41 1
  44   22   42 1
  45   22   43 1

#	End of record

