#	Name: ASD01410667
#	Creating user name:	WinNT
#	Creation time:	15. 06. 2019 19:18

#	Modifying user name:	WinNT
#	Modification time:	15. 06. 2019 19:18

#	Program:	/corina/corina34_cracker 3.40 0067  02.08.2006

@<TRIPOS>MOLECULE
ASD01410667
  80   84    0    0    0
SMALL
NO_CHARGES


@<TRIPOS>ATOM
   1 C1             2.9832     5.4478     2.1460 C.ar    
   2 C2             3.7130     5.0856     3.2696 C.ar    
   3 C3             4.5909     4.0224     3.1913 C.ar    
   4 N4             4.7418     3.3516     2.0654 N.ar    
   5 C5             4.0643     3.6666     0.9735 C.ar    
   6 C6             3.1640     4.7244     0.9799 C.ar    
   7 O7             4.2509     2.9500    -0.1631 O.3     
   8 C8             5.2148     1.9904    -0.1620 C.ar    
   9 C9             6.5366     2.3338    -0.4346 C.ar    
  10 C10            7.5234     1.3654    -0.4358 C.ar    
  11 C11            7.2016     0.0436    -0.1652 C.ar    
  12 C12            5.8707    -0.3080     0.1103 C.ar    
  13 C13            4.8806     0.6791     0.1152 C.ar    
  14 F14            6.8561     3.6194    -0.6998 F       
  15 N15            8.1965    -0.9328    -0.1673 N.am    
  16 C16            8.8148    -1.2674     0.9826 C.2     
  17 C17            8.5702    -1.5951    -1.4195 C.3     
  18 O18            8.4256    -0.8092     2.0359 O.2     
  19 C19            9.9897    -2.2108     0.9595 C.3     
  20 C20           10.3780    -2.5769     2.3934 C.3     
  21 C21           11.5708    -3.5348     2.3700 C.3     
  22 C22           12.7554    -2.8574     1.6780 C.3     
  23 C23           12.3670    -2.4913     0.2441 C.3     
  24 C24           11.1742    -1.5334     0.2675 C.3     
  25 C25           13.9482    -3.8153     1.6546 C.3     
  26 C26            7.4833    -2.5987    -1.8097 C.3     
  27 C27            8.7187    -0.5484    -2.5255 C.3     
  28 C28            3.5495     5.8446     4.5612 C.3     
  29 C29            7.3900     0.1864    -2.7140 C.3     
  30 C30            2.4553     5.2110     5.3811 C.2     
  31 C31            6.1546    -1.8639    -1.9982 C.3     
  32 C32            6.3031    -0.8172    -3.1042 C.3     
  33 O33            5.0621    -0.1309    -3.2802 O.3     
  34 C34            4.8388     0.3337    -4.6130 C.3     
  35 S35            0.7438     5.6260     5.3231 S.3     
  36 C36            0.4087     4.4460     6.5142 C.2     
  37 N37            1.4967     3.8497     6.8682 N.2     
  38 C38            2.6108     4.2312     6.2765 C.2     
  39 C39            2.3941     5.0792    -0.2660 C.3     
  40 F40            1.5603     6.1716    -0.0037 F       
  41 F41            3.2892     5.4109    -1.2888 F       
  42 F42            1.6180     3.9848    -0.6622 F       
  43 C43            5.5202    -1.7089     0.3986 C.2     
  44 O44            6.3946    -2.5482     0.4876 O.2     
  45 O45            4.2296    -2.0603     0.5638 O.3     
  46 H46            2.2869     6.2725     2.1819 H       
  47 H47            5.1614     3.7367     4.0627 H       
  48 H48            8.5465     1.6385    -0.6480 H       
  49 H49            3.8548     0.4153     0.3264 H       
  50 H50            9.5168    -2.1186    -1.2852 H       
  51 H51            9.7189    -3.1150     0.4143 H       
  52 H52           10.6487    -1.6727     2.9386 H       
  53 H53            9.5341    -3.0595     2.8864 H       
  54 H54           11.8475    -3.7956     3.3916 H       
  55 H55           11.3001    -4.4390     1.8248 H       
  56 H56           13.0261    -1.9532     2.2232 H       
  57 H57           13.2109    -2.0087    -0.2489 H       
  58 H58           12.0963    -3.3955    -0.3011 H       
  59 H59           10.8976    -1.2726    -0.7540 H       
  60 H60           11.4450    -0.6293     0.8127 H       
  61 H61           13.6775    -4.7195     1.1094 H       
  62 H62           14.7921    -3.3327     1.1616 H       
  63 H63           14.2248    -4.0761     2.6762 H       
  64 H64            7.7613    -3.0915    -2.7413 H       
  65 H65            7.3775    -3.3444    -1.0217 H       
  66 H66            9.4930     0.1665    -2.2476 H       
  67 H67            8.9967    -1.0413    -3.4572 H       
  68 H68            4.4849     5.8166     5.1200 H       
  69 H69            3.2872     6.8799     4.3435 H       
  70 H70            7.1120     0.6792    -1.7824 H       
  71 H71            7.4958     0.9320    -3.5020 H       
  72 H72            5.3802    -2.5789    -2.2761 H       
  73 H73            5.8766    -1.3711    -1.0665 H       
  74 H74            6.5811    -1.3101    -4.0358 H       
  75 H75            5.6321     1.0263    -4.8940 H       
  76 H76            4.8374    -0.5143    -5.2979 H       
  77 H77            3.8766     0.8433    -4.6638 H       
  78 H78           -0.5718     4.2314     6.9130 H       
  79 H79            3.5719     3.7937     6.5029 H       
  80 H80            4.0487    -2.9916     0.7514 H       
@<TRIPOS>BOND
   1    1    2 ar
   2    1    6 ar
   3    1   46 1
   4    2    3 ar
   5    2   28 1
   6    3    4 ar
   7    3   47 1
   8    4    5 ar
   9    5    6 ar
  10    5    7 1
  11    6   39 1
  12    7    8 1
  13    8    9 ar
  14    8   13 ar
  15    9   10 ar
  16    9   14 1
  17   10   11 ar
  18   10   48 1
  19   11   12 ar
  20   11   15 1
  21   12   13 ar
  22   12   43 1
  23   13   49 1
  24   15   16 am
  25   15   17 1
  26   16   18 2
  27   16   19 1
  28   17   26 1
  29   17   27 1
  30   17   50 1
  31   19   20 1
  32   19   24 1
  33   19   51 1
  34   20   21 1
  35   20   52 1
  36   20   53 1
  37   21   22 1
  38   21   54 1
  39   21   55 1
  40   22   23 1
  41   22   25 1
  42   22   56 1
  43   23   24 1
  44   23   57 1
  45   23   58 1
  46   24   59 1
  47   24   60 1
  48   25   61 1
  49   25   62 1
  50   25   63 1
  51   26   31 1
  52   26   64 1
  53   26   65 1
  54   27   29 1
  55   27   66 1
  56   27   67 1
  57   28   30 1
  58   28   68 1
  59   28   69 1
  60   29   32 1
  61   29   70 1
  62   29   71 1
  63   30   35 1
  64   30   38 2
  65   31   32 1
  66   31   72 1
  67   31   73 1
  68   32   33 1
  69   32   74 1
  70   33   34 1
  71   34   75 1
  72   34   76 1
  73   34   77 1
  74   35   36 1
  75   36   37 2
  76   36   78 1
  77   37   38 1
  78   38   79 1
  79   39   40 1
  80   39   41 1
  81   39   42 1
  82   43   44 2
  83   43   45 1
  84   45   80 1

#	End of record

