#	Name: ASD05313169
#	Creating user name:	WinNT
#	Creation time:	15. 06. 2019 20:58

#	Modifying user name:	WinNT
#	Modification time:	15. 06. 2019 20:58

#	Program:	/corina/corina34_cracker 3.40 0067  02.08.2006

@<TRIPOS>MOLECULE
ASD05313169
  37   40    0    0    0
SMALL
NO_CHARGES


@<TRIPOS>ATOM
   1 C1            -0.0722     0.8169     1.0246 C.2     
   2 C2             0.1140    -0.6194     0.5968 C.3     
   3 N3             0.9301     1.7301     1.0509 N.pl3   
   4 N4             1.4570    -0.7186    -0.0052 N.am    
   5 C5             2.5714    -0.0371     0.6708 C.3     
   6 C6             2.3167     1.4750     0.6644 C.3     
   7 N7            -0.9059     2.6396     1.7098 N.2     
   8 N8            -1.1577     1.4075     1.4276 N.2     
   9 C9             0.3713     2.8907     1.4964 C.2     
  10 S10            2.7266     4.5295     1.4340 S.3     
  11 N11            2.5997     6.1547     1.9148 N.2     
  12 C12            1.3492     6.3313     2.2393 C.2     
  13 N13            0.5384     5.3100     2.1332 N.2     
  14 C14            1.0614     4.1771     1.7024 C.2     
  15 C15            1.6573    -1.4143    -1.1420 C.2     
  16 O16            2.7489    -1.4035    -1.6768 O.2     
  17 C17            0.5500    -2.1901    -1.7382 C.ar    
  18 C18            0.3183    -2.1382    -3.1153 C.ar    
  19 C19           -0.7186    -2.8662    -3.6651 C.ar    
  20 C20           -1.5263    -3.6443    -2.8557 C.ar    
  21 C21           -1.3021    -3.6993    -1.4913 C.ar    
  22 C22           -0.2660    -2.9828    -0.9293 C.ar    
  23 C23           -0.9709    -2.8121    -5.1499 C.3     
  24 F24           -2.0645    -3.6249    -5.4669 F       
  25 F25           -1.2444    -1.4935    -5.5287 F       
  26 F26            0.1622    -3.2679    -5.8323 F       
  27 Cl27           1.3308    -1.1610    -4.1320 Cl      
  28 H28            0.0450    -1.2775     1.4630 H       
  29 H29           -0.6441    -0.8898    -0.1383 H       
  30 H30            2.6436    -0.3898     1.6996 H       
  31 H31            3.5020    -0.2518     0.1453 H       
  32 H32            2.4946     1.8702    -0.3358 H       
  33 H33            2.9876     1.9603     1.3733 H       
  34 H34            0.9939     7.2908     2.5852 H       
  35 H35           -2.3361    -4.2114    -3.2905 H       
  36 H36           -1.9372    -4.3085    -0.8653 H       
  37 H37           -0.0894    -3.0312     0.1351 H       
@<TRIPOS>BOND
   1    1    2 1
   2    1    3 1
   3    1    8 2
   4    2    4 1
   5    2   28 1
   6    2   29 1
   7    3    6 1
   8    3    9 1
   9    4    5 1
  10    4   15 am
  11    5    6 1
  12    5   30 1
  13    5   31 1
  14    6   32 1
  15    6   33 1
  16    7    8 1
  17    7    9 2
  18    9   14 1
  19   10   11 1
  20   10   14 1
  21   11   12 2
  22   12   13 1
  23   12   34 1
  24   13   14 2
  25   15   16 2
  26   15   17 1
  27   17   18 ar
  28   17   22 ar
  29   18   19 ar
  30   18   27 1
  31   19   20 ar
  32   19   23 1
  33   20   21 ar
  34   20   35 1
  35   21   22 ar
  36   21   36 1
  37   22   37 1
  38   23   24 1
  39   23   25 1
  40   23   26 1

#	End of record

