#	Name: ASD00310213
#	Creating user name:	WinNT
#	Creation time:	15. 06. 2019 18:34

#	Modifying user name:	WinNT
#	Modification time:	15. 06. 2019 18:34

#	Program:	/corina/corina34_cracker 3.40 0067  02.08.2006

@<TRIPOS>MOLECULE
ASD00310213
  40   43    0    0    0
SMALL
NO_CHARGES


@<TRIPOS>ATOM
   1 N1            -0.0162     1.3413     0.0094 N.pl3   
   2 C2             0.0021    -0.0041     0.0020 C.2     
   3 C3             1.3073    -0.4510    -0.0128 C.2     
   4 C4             2.1558     0.7562    -0.0144 C.ar    
   5 C5             3.5320     0.9634    -0.0268 C.ar    
   6 C6             4.0337     2.2559    -0.0251 C.ar    
   7 C7             3.1468     3.3538    -0.0108 C.ar    
   8 C8             1.7715     3.1417     0.0016 C.ar    
   9 C9             1.2690     1.8476    -0.0001 C.ar    
  10 C10            3.6635     4.6893    -0.0085 C.1     
  11 N11            4.0734     5.7488    -0.0066 N.1     
  12 C12            5.4980     2.4841    -0.0378 C.ar    
  13 C13            6.0614     3.3625    -0.9625 C.ar    
  14 C14            7.4255     3.5709    -0.9695 C.ar    
  15 C15            8.2336     2.9102    -0.0618 C.ar    
  16 C16            7.6803     2.0376     0.8581 C.ar    
  17 C17            6.3169     1.8258     0.8787 C.ar    
  18 C18            9.7227     3.1415    -0.0753 C.3     
  19 C19           10.3827     2.9874     1.3051 C.3     
  20 C20           11.5443     2.2836     0.5839 C.3     
  21 C21           10.5334     1.9103    -0.5131 C.3     
  22 O22           10.0914     4.3432    -0.7552 O.3     
  23 C23            1.7452    -1.7993    -0.0236 C.2     
  24 O24            0.9328    -2.7014    -0.0204 O.2     
  25 H25           -0.8216     1.8818     0.0163 H       
  26 H26           -0.8723    -0.6379     0.0075 H       
  27 H27            4.2069     0.1203    -0.0374 H       
  28 H28            1.0953     3.9837     0.0129 H       
  29 H29            5.4315     3.8783    -1.6721 H       
  30 H30            7.8631     4.2510    -1.6854 H       
  31 H31            8.3162     1.5245     1.5643 H       
  32 H32            5.8855     1.1477     1.6002 H       
  33 H33           10.6635     3.9358     1.7631 H       
  34 H34            9.8307     2.3360     1.9827 H       
  35 H35           12.3247     2.9650     0.2450 H       
  36 H36           11.9379     1.4238     1.1260 H       
  37 H37           10.0227     0.9644    -0.3326 H       
  38 H38           10.9360     1.9891    -1.5230 H       
  39 H39            9.6979     4.4346    -1.6337 H       
  40 H40            2.8015    -2.0239    -0.0345 H       
@<TRIPOS>BOND
   1    1    2 1
   2    1    9 1
   3    1   25 1
   4    2    3 2
   5    2   26 1
   6    3    4 1
   7    3   23 1
   8    4    5 ar
   9    4    9 ar
  10    5    6 ar
  11    5   27 1
  12    6    7 ar
  13    6   12 1
  14    7    8 ar
  15    7   10 1
  16    8    9 ar
  17    8   28 1
  18   10   11 3
  19   12   13 ar
  20   12   17 ar
  21   13   14 ar
  22   13   29 1
  23   14   15 ar
  24   14   30 1
  25   15   16 ar
  26   15   18 1
  27   16   17 ar
  28   16   31 1
  29   17   32 1
  30   18   19 1
  31   18   21 1
  32   18   22 1
  33   19   20 1
  34   19   33 1
  35   19   34 1
  36   20   21 1
  37   20   35 1
  38   20   36 1
  39   21   37 1
  40   21   38 1
  41   22   39 1
  42   23   24 2
  43   23   40 1

#	End of record

