#	Name: ASD01140737
#	Creating user name:	WinNT
#	Creation time:	15. 06. 2019 19:01

#	Modifying user name:	WinNT
#	Modification time:	15. 06. 2019 19:01

#	Program:	/corina/corina34_cracker 3.40 0067  02.08.2006

@<TRIPOS>MOLECULE
ASD01140737
  51   55    0    0    0
SMALL
NO_CHARGES


@<TRIPOS>ATOM
   1 C1             0.1070     1.5006     0.0395 C.3     
   2 C2             0.0582    -0.0054     0.0143 C.2     
   3 O3            -0.0727    -0.7840    -1.0692 O.3     
   4 N4            -0.0803    -1.9582    -0.7809 N.2     
   5 C5             0.0418    -2.1344     0.5113 C.2     
   6 C6             0.1438    -0.8340     1.0796 C.2     
   7 C7             0.3065    -0.4655     2.5318 C.3     
   8 O8            -0.9751    -0.1862     3.0988 O.3     
   9 C9            -1.0057     0.1638     4.4077 C.ar    
  10 C10           -2.2221     0.4442     5.0260 C.ar    
  11 C11           -2.2056     0.7976     6.3646 C.ar    
  12 C12           -0.9672     0.8513     7.0141 C.ar    
  13 N13            0.1423     0.5671     6.3424 N.ar    
  14 N14            0.1225     0.2345     5.1028 N.ar    
  15 C15           -0.8944     1.2241     8.4438 C.2     
  16 O16           -1.9114     1.4843     9.0566 O.2     
  17 N17            0.2995     1.2751     9.0670 N.am    
  18 C18            1.7051     1.0475     8.6917 C.3     
  19 C19            2.1129     2.0072     9.8203 C.3     
  20 C20            0.7742     1.5870    10.4131 C.3     
  21 C21           -0.0107     2.5250    11.3351 C.3     
  22 O22           -0.4417     1.3166    11.9969 O.3     
  23 C23            0.6971     0.5549    11.5420 C.3     
  24 C24            0.0735    -3.4296     1.2359 C.ar    
  25 C25           -0.6059    -3.5821     2.4472 C.ar    
  26 C26           -0.5458    -4.8102     3.0837 C.ar    
  27 C27            0.1779    -5.8368     2.5057 C.ar    
  28 C28            0.2460    -7.1756     3.1943 C.3     
  29 N29            0.8093    -5.6627     1.3606 N.ar    
  30 C30            0.7764    -4.5144     0.7162 C.ar    
  31 H31            1.1405     1.8323    -0.0609 H       
  32 H32           -0.4837     1.8971    -0.7862 H       
  33 H33           -0.3003     1.8615     0.9839 H       
  34 H34            0.7680    -1.2950     3.0676 H       
  35 H35            0.9404     0.4175     2.6138 H       
  36 H36           -3.1507     0.3879     4.4774 H       
  37 H37           -3.1206     1.0252     6.8914 H       
  38 H38            2.0364     0.0218     8.8542 H       
  39 H39            1.9535     1.4179     7.6971 H       
  40 H40            2.9814     1.6823    10.3932 H       
  41 H41            2.1583     3.0550     9.5233 H       
  42 H42            0.6185     3.1665    11.9521 H       
  43 H43           -0.8143     3.0656    10.8350 H       
  44 H44            0.4493    -0.4515    11.2045 H       
  45 H45            1.5473     0.5813    12.2237 H       
  46 H46           -1.1635    -2.7627     2.8762 H       
  47 H47           -1.0584    -4.9645     4.0217 H       
  48 H48           -0.5765    -7.8030     2.8510 H       
  49 H49            1.1943    -7.6581     2.9576 H       
  50 H50            0.1695    -7.0339     4.2724 H       
  51 H51            1.3026    -4.4116    -0.2213 H       
@<TRIPOS>BOND
   1    1    2 1
   2    1   31 1
   3    1   32 1
   4    1   33 1
   5    2    6 2
   6    2    3 1
   7    3    4 1
   8    4    5 2
   9    5    6 1
  10    5   24 1
  11    6    7 1
  12    7    8 1
  13    7   34 1
  14    7   35 1
  15    8    9 1
  16    9   14 ar
  17    9   10 ar
  18   10   11 ar
  19   10   36 1
  20   11   12 ar
  21   11   37 1
  22   12   13 ar
  23   12   15 1
  24   13   14 ar
  25   15   16 2
  26   15   17 am
  27   17   20 1
  28   17   18 1
  29   18   19 1
  30   18   38 1
  31   18   39 1
  32   19   20 1
  33   19   40 1
  34   19   41 1
  35   20   23 1
  36   20   21 1
  37   21   22 1
  38   21   42 1
  39   21   43 1
  40   22   23 1
  41   23   44 1
  42   23   45 1
  43   24   30 ar
  44   24   25 ar
  45   25   26 ar
  46   25   46 1
  47   26   27 ar
  48   26   47 1
  49   27   28 1
  50   27   29 ar
  51   28   48 1
  52   28   49 1
  53   28   50 1
  54   29   30 ar
  55   30   51 1

#	End of record

