#	Name: ASD00990030
#	Creating user name:	WinNT
#	Creation time:	15. 06. 2019 18:54

#	Modifying user name:	WinNT
#	Modification time:	15. 06. 2019 18:54

#	Program:	/corina/corina34_cracker 3.40 0067  02.08.2006

@<TRIPOS>MOLECULE
ASD00990030
  36   37    0    0    0
SMALL
NO_CHARGES


@<TRIPOS>ATOM
   1 C1            -0.0167     1.3800     0.0096 C.ar    
   2 C2             0.0021    -0.0041     0.0020 C.ar    
   3 C3            -1.1802    -0.7176     0.0090 C.ar    
   4 C4            -2.3939    -0.0468     0.0242 C.ar    
   5 C5            -2.4136     1.3468     0.0323 C.ar    
   6 C6            -1.2218     2.0583     0.0305 C.ar    
   7 O7            -3.6824    -0.4679     0.0339 O.3     
   8 C8            -4.4958     0.5997     0.0476 C.2     
   9 N9            -3.7566     1.7268     0.0471 N.am    
  10 O10           -5.7110     0.5568     0.0583 O.2     
  11 F11           -1.2390     3.4092     0.0389 F       
  12 C12           -4.2689     3.0992     0.0601 C.3     
  13 C13           -4.4314     3.5612     1.4853 C.2     
  14 O14           -4.1483     2.8201     2.3967 O.2     
  15 O15           -4.8906     4.7961     1.7424 O.3     
  16 C16           -5.0217     5.1733     3.1384 C.3     
  17 C17           -3.6537     5.0935     3.8188 C.3     
  18 C18           -5.5553     6.6042     3.2320 C.3     
  19 C19           -5.9943     4.2197     3.8352 C.3     
  20 C20            1.2790     2.1494     0.0014 C.3     
  21 F21            2.3534     1.2534    -0.0137 F       
  22 F22            1.3324     2.9607    -1.1371 F       
  23 F23            1.3542     2.9484     1.1473 F       
  24 H24            0.9461    -0.5286    -0.0098 H       
  25 H25           -1.1597    -1.7974     0.0023 H       
  26 H26           -3.5670     3.7540    -0.4563 H       
  27 H27           -5.2345     3.1314    -0.4446 H       
  28 H28           -2.9608     5.7729     3.3224 H       
  29 H29           -3.7520     5.3767     4.8668 H       
  30 H30           -3.2735     4.0742     3.7521 H       
  31 H31           -6.5299     6.6610     2.7473 H       
  32 H32           -5.6536     6.8874     4.2800 H       
  33 H33           -4.8624     7.2836     2.7356 H       
  34 H34           -5.6142     3.2003     3.7685 H       
  35 H35           -6.0927     4.5029     4.8832 H       
  36 H36           -6.9689     4.2765     3.3504 H       
@<TRIPOS>BOND
   1    1    2 ar
   2    1   20 1
   3    1    6 ar
   4    2    3 ar
   5    2   24 1
   6    3    4 ar
   7    3   25 1
   8    4    5 ar
   9    4    7 1
  10    5    6 ar
  11    5    9 1
  12    6   11 1
  13    7    8 1
  14    8    9 am
  15    8   10 2
  16    9   12 1
  17   12   13 1
  18   12   26 1
  19   12   27 1
  20   13   14 2
  21   13   15 1
  22   15   16 1
  23   16   17 1
  24   16   18 1
  25   16   19 1
  26   17   28 1
  27   17   29 1
  28   17   30 1
  29   18   31 1
  30   18   32 1
  31   18   33 1
  32   19   34 1
  33   19   35 1
  34   19   36 1
  35   20   21 1
  36   20   22 1
  37   20   23 1

#	End of record

