#	Name: ASD08070652
#	Creating user name:	WinNT
#	Creation time:	15. 06. 2019 21:15

#	Modifying user name:	WinNT
#	Modification time:	15. 06. 2019 21:15

#	Program:	/corina/corina34_cracker 3.40 0067  02.08.2006

@<TRIPOS>MOLECULE
ASD08070652
  40   40    0    0    0
SMALL
NO_CHARGES


@<TRIPOS>ATOM
   1 C1            -0.0180     1.4736     0.0101 C.2     
   2 C2             0.0021    -0.0041     0.0020 C.ar    
   3 C3             1.2191    -0.6885    -0.0133 C.ar    
   4 C4             1.2314    -2.0671    -0.0203 C.ar    
   5 C5             0.0396    -2.7733    -0.0127 C.ar    
   6 C6            -1.1705    -2.1001     0.0025 C.ar    
   7 C7            -1.1955    -0.7212     0.0154 C.ar    
   8 O8             1.0264     2.0957     0.0035 O.2     
   9 N9            -1.1942     2.1316     0.0193 N.am    
  10 C10           -1.2141     3.5964     0.0274 C.3     
  11 C11           -1.1021     4.1159    -1.4074 C.3     
  12 C12            0.2626     3.7328    -1.9835 C.3     
  13 C13            0.3745     4.2522    -3.4182 C.3     
  14 C14           -2.5253     4.0853     0.6459 C.3     
  15 C15           -2.5803     3.6716     2.1179 C.3     
  16 C16           -3.8915     4.1605     2.7364 C.3     
  17 C17            2.5440    -2.8073    -0.0368 C.3     
  18 Cl18           0.0632    -4.5091    -0.0228 Cl      
  19 H19            2.1488    -0.1390    -0.0199 H       
  20 H20           -2.0965    -2.6560     0.0080 H       
  21 H21           -2.1398    -0.1972     0.0318 H       
  22 H22           -2.0276     1.6352     0.0206 H       
  23 H23           -0.3745     3.9679     0.6149 H       
  24 H24           -1.8906     3.6739    -2.0164 H       
  25 H25           -1.2060     5.2009    -1.4101 H       
  26 H26            1.0511     4.1748    -1.3744 H       
  27 H27            0.3664     2.6477    -1.9807 H       
  28 H28           -0.4140     3.8102    -4.0272 H       
  29 H29            0.2707     5.3373    -3.4209 H       
  30 H30            1.3467     3.9793    -3.8286 H       
  31 H31           -2.5794     5.1714     0.5714 H       
  32 H32           -3.3661     3.6421     0.1123 H       
  33 H33           -2.5261     2.5855     2.1923 H       
  34 H34           -1.7394     4.1148     2.6514 H       
  35 H35           -3.9456     5.2466     2.6619 H       
  36 H36           -4.7323     3.7174     2.2028 H       
  37 H37           -3.9306     3.8658     3.7851 H       
  38 H38            2.8705    -2.9910     0.9868 H       
  39 H39            2.4183    -3.7584    -0.5542 H       
  40 H40            3.2926    -2.2080    -0.5550 H       
@<TRIPOS>BOND
   1    1    2 1
   2    1    8 2
   3    1    9 am
   4    2    3 ar
   5    2    7 ar
   6    3    4 ar
   7    3   19 1
   8    4    5 ar
   9    4   17 1
  10    5    6 ar
  11    5   18 1
  12    6    7 ar
  13    6   20 1
  14    7   21 1
  15    9   10 1
  16    9   22 1
  17   10   11 1
  18   10   14 1
  19   10   23 1
  20   11   12 1
  21   11   24 1
  22   11   25 1
  23   12   13 1
  24   12   26 1
  25   12   27 1
  26   13   28 1
  27   13   29 1
  28   13   30 1
  29   14   15 1
  30   14   31 1
  31   14   32 1
  32   15   16 1
  33   15   33 1
  34   15   34 1
  35   16   35 1
  36   16   36 1
  37   16   37 1
  38   17   38 1
  39   17   39 1
  40   17   40 1

#	End of record

