#	Name: ASD01912468
#	Creating user name:	WinNT
#	Creation time:	15. 06. 2019 19:59

#	Modifying user name:	WinNT
#	Modification time:	15. 06. 2019 19:59

#	Program:	/corina/corina34_cracker 3.40 0067  02.08.2006

@<TRIPOS>MOLECULE
ASD01912468
  66   70    0    0    0
SMALL
NO_CHARGES


@<TRIPOS>ATOM
   1 C1            -0.0140     1.3459     0.5112 C.ar    
   2 C2             0.0209    -0.0332     0.4600 C.ar    
   3 C3             1.1867    -0.6835     0.0621 C.ar    
   4 C4             2.3119     0.0627    -0.2824 C.ar    
   5 C5             2.2660     1.4408    -0.2277 C.ar    
   6 C6             1.1057     2.0817     0.1682 C.ar    
   7 C7             1.2303    -2.1662     0.0057 C.2     
   8 N8             2.2924    -2.8967    -0.2625 N.2     
   9 C9             0.1466    -3.0305     0.2352 C.2     
  10 C10            0.5964    -4.3101     0.0898 C.2     
  11 N11            1.9233    -4.2470    -0.2186 N.pl3   
  12 C12           -0.2084    -5.5427     0.2423 C.ar    
  13 C13            2.8068    -5.3901    -0.4612 C.3     
  14 C14            2.8687    -5.6721    -1.9403 C.2     
  15 N15            3.6261    -6.6869    -2.4018 N.am    
  16 O16            2.2370    -4.9858    -2.7155 O.2     
  17 C17            3.7007    -6.9793    -3.8413 C.3     
  18 C18            4.4048    -7.5276    -1.4797 C.3     
  19 C19            5.8515    -7.5893    -1.9812 C.3     
  20 N20            5.8622    -8.0297    -3.3826 N.3     
  21 C21            5.1765    -7.0637    -4.2450 C.3     
  22 C22            7.1576    -8.2539    -3.8230 C.ar    
  23 N23            7.3546    -8.6579    -5.0687 N.ar    
  24 N24            8.1664    -8.0535    -2.9888 N.ar    
  25 C25            9.4153    -8.2574    -3.3749 C.ar    
  26 C26            9.6605    -8.6871    -4.6740 C.ar    
  27 C27            8.5769    -8.8815    -5.5229 C.ar    
  28 C28           -1.3790    -5.5254     1.0008 C.ar    
  29 C29           -2.1250    -6.6779     1.1392 C.ar    
  30 C30           -1.7142    -7.8488     0.5276 C.ar    
  31 C31           -0.5540    -7.8725    -0.2255 C.ar    
  32 C32            0.1974    -6.7251    -0.3766 C.ar    
  33 C33            3.4821     2.2492    -0.6000 C.3     
  34 C34            1.0617     3.5869     0.2265 C.3     
  35 O35           10.9314    -8.9071    -5.1061 O.3     
  36 C36           11.0905    -9.3475    -6.4562 C.3     
  37 H37           -0.9187     1.8513     0.8153 H       
  38 H38           -0.8539    -0.6068     0.7284 H       
  39 H39            3.2183    -0.4366    -0.5913 H       
  40 H40           -0.8621    -2.7347     0.4829 H       
  41 H41            3.8068    -5.1611    -0.0929 H       
  42 H42            2.4194    -6.2658     0.0596 H       
  43 H43            3.2097    -7.9303    -4.0477 H       
  44 H44            3.2125    -6.1826    -4.4025 H       
  45 H45            4.3819    -7.0932    -0.4803 H       
  46 H46            3.9826    -8.5322    -1.4551 H       
  47 H47            6.3046    -6.6007    -1.9071 H       
  48 H48            6.4172    -8.2956    -1.3736 H       
  49 H49            5.2473    -7.3885    -5.2831 H       
  50 H50            5.6431    -6.0845    -4.1373 H       
  51 H51           10.2336    -8.0917    -2.6899 H       
  52 H52            8.7306    -9.2149    -6.5386 H       
  53 H53           -1.7005    -4.6120     1.4790 H       
  54 H54           -3.0313    -6.6659     1.7265 H       
  55 H55           -2.3015    -8.7483     0.6389 H       
  56 H56           -0.2381    -8.7898    -0.7000 H       
  57 H57            1.1028    -6.7447    -0.9651 H       
  58 H58            3.4576     2.4723    -1.6667 H       
  59 H59            3.4864     3.1807    -0.0340 H       
  60 H60            4.3820     1.6793    -0.3686 H       
  61 H61            0.7335     3.9783    -0.7364 H       
  62 H62            0.3639     3.9002     1.0030 H       
  63 H63            2.0559     3.9708     0.4549 H       
  64 H64           10.5665   -10.2933    -6.5940 H       
  65 H65           10.6761    -8.6006    -7.1333 H       
  66 H66           12.1502    -9.4847    -6.6712 H       
@<TRIPOS>BOND
   1    1    2 ar
   2    1    6 ar
   3    1   37 1
   4    2    3 ar
   5    2   38 1
   6    3    4 ar
   7    3    7 1
   8    4    5 ar
   9    4   39 1
  10    5    6 ar
  11    5   33 1
  12    6   34 1
  13    7    8 2
  14    7    9 1
  15    8   11 1
  16    9   10 2
  17    9   40 1
  18   10   11 1
  19   10   12 1
  20   11   13 1
  21   12   28 ar
  22   12   32 ar
  23   13   14 1
  24   13   41 1
  25   13   42 1
  26   14   15 am
  27   14   16 2
  28   15   17 1
  29   15   18 1
  30   17   21 1
  31   17   43 1
  32   17   44 1
  33   18   19 1
  34   18   45 1
  35   18   46 1
  36   19   20 1
  37   19   47 1
  38   19   48 1
  39   20   21 1
  40   20   22 1
  41   21   49 1
  42   21   50 1
  43   22   23 ar
  44   22   24 ar
  45   23   27 ar
  46   24   25 ar
  47   25   26 ar
  48   25   51 1
  49   26   27 ar
  50   26   35 1
  51   27   52 1
  52   28   29 ar
  53   28   53 1
  54   29   30 ar
  55   29   54 1
  56   30   31 ar
  57   30   55 1
  58   31   32 ar
  59   31   56 1
  60   32   57 1
  61   33   58 1
  62   33   59 1
  63   33   60 1
  64   34   61 1
  65   34   62 1
  66   34   63 1
  67   35   36 1
  68   36   64 1
  69   36   65 1
  70   36   66 1

#	End of record

