#	Name: ASD01150268
#	Creating user name:	WinNT
#	Creation time:	15. 06. 2019 19:03

#	Modifying user name:	WinNT
#	Modification time:	15. 06. 2019 19:03

#	Program:	/corina/corina34_cracker 3.40 0067  02.08.2006

@<TRIPOS>MOLECULE
ASD01150268
  73   76    0    0    0
SMALL
NO_CHARGES


@<TRIPOS>ATOM
   1 C1            -0.0158     1.3124     0.0093 C.2     
   2 N2             0.0021    -0.0041     0.0020 N.2     
   3 C3            -1.2464    -0.4791     0.0114 C.2     
   4 C4            -2.1132     0.6062     0.0255 C.2     
   5 N5            -1.3045     1.7450     0.0298 N.pl3   
   6 N6             1.0957     2.1232     0.0030 N.3     
   7 C7             2.3292     1.3256    -0.0137 C.3     
   8 C8             1.0585     3.0588    -1.1289 C.3     
   9 C9            -1.7381     3.0770     0.0437 C.ar    
  10 N10           -1.6128    -1.8206     0.0073 N.am    
  11 C11           -3.5222     0.5664     0.0380 C.2     
  12 O12           -4.2301     1.7163     0.0505 O.3     
  13 O13           -4.1011    -0.5050     0.0375 O.2     
  14 C14           -5.6544     1.6012     0.0628 C.3     
  15 C15           -6.0934     0.8346     1.3120 C.3     
  16 C16           -6.2789     2.9980     0.0759 C.3     
  17 C17           -6.1160     0.8479    -1.1864 C.3     
  18 C18           -1.4635     3.8867     1.1378 C.ar    
  19 C19           -1.8923     5.1995     1.1485 C.ar    
  20 C20           -2.5944     5.7079     0.0711 C.ar    
  21 C21           -2.8694     4.9041    -1.0200 C.ar    
  22 C22           -2.4383     3.5920    -1.0392 C.ar    
  23 C23           -0.6645    -2.7781    -0.0069 C.2     
  24 C24           -1.0616    -4.2319    -0.0113 C.3     
  25 O25            0.5084    -2.4699    -0.0160 O.2     
  26 C26            0.1766    -5.0908    -0.0276 C.ar    
  27 C27            0.7547    -5.4909     1.1630 C.ar    
  28 C28            1.8897    -6.2782     1.1507 C.ar    
  29 C29            2.4495    -6.6675    -0.0575 C.ar    
  30 C30            1.8675    -6.2648    -1.2507 C.ar    
  31 C31            0.7292    -5.4821    -1.2331 C.ar    
  32 O32            3.5663    -7.4417    -0.0721 O.3     
  33 C33            4.0875    -7.8044    -1.3523 C.3     
  34 C34            5.3171    -8.6565    -1.1710 C.ar    
  35 C35            5.1991   -10.0313    -1.0868 C.ar    
  36 C36            6.3270   -10.8130    -0.9205 C.ar    
  37 C37            7.5730   -10.2200    -0.8387 C.ar    
  38 C38            7.6911    -8.8453    -0.9238 C.ar    
  39 C39            6.5637    -8.0639    -1.0945 C.ar    
  40 H40            2.3465     0.7019    -0.9074 H       
  41 H41            3.1923     1.9912    -0.0183 H       
  42 H42            2.3640     0.6917     0.8724 H       
  43 H43            0.1695     3.6850    -1.0537 H       
  44 H44            1.9485     3.6877    -1.1099 H       
  45 H45            1.0298     2.4979    -2.0631 H       
  46 H46           -2.5509    -2.0671     0.0146 H       
  47 H47           -5.7646     1.3713     2.2019 H       
  48 H48           -7.1798     0.7468     1.3213 H       
  49 H49           -5.6486    -0.1604     1.3027 H       
  50 H50           -5.9661     3.5441    -0.8141 H       
  51 H51           -7.3653     2.9102     0.0852 H       
  52 H52           -5.9501     3.5346     0.9658 H       
  53 H53           -5.6712    -0.1471    -1.1957 H       
  54 H54           -7.2024     0.7601    -1.1770 H       
  55 H55           -5.8033     1.3941    -2.0763 H       
  56 H56           -0.9155     3.4901     1.9797 H       
  57 H57           -1.6794     5.8296     1.9994 H       
  58 H58           -2.9290     6.7347     0.0820 H       
  59 H59           -3.4183     5.3038    -1.8599 H       
  60 H60           -2.6531     2.9649    -1.8917 H       
  61 H61           -1.6448    -4.4520     0.8829 H       
  62 H62           -1.6612    -4.4420    -0.8970 H       
  63 H63            0.3187    -5.1872     2.1033 H       
  64 H64            2.3411    -6.5902     2.0810 H       
  65 H65            2.3014    -6.5665    -2.1925 H       
  66 H66            0.2758    -5.1683    -2.1617 H       
  67 H67            3.3346    -8.3659    -1.9054 H       
  68 H68            4.3486    -6.9031    -1.9069 H       
  69 H69            4.2256   -10.4946    -1.1507 H       
  70 H70            6.2346   -11.8870    -0.8540 H       
  71 H71            8.4541   -10.8306    -0.7080 H       
  72 H72            8.6646    -8.3820    -0.8597 H       
  73 H73            6.6560    -6.9899    -1.1610 H       
@<TRIPOS>BOND
   1    1    2 2
   2    1    6 1
   3    1    5 1
   4    2    3 1
   5    3    4 2
   6    3   10 1
   7    4    5 1
   8    4   11 1
   9    5    9 1
  10    6    7 1
  11    6    8 1
  12    7   40 1
  13    7   41 1
  14    7   42 1
  15    8   43 1
  16    8   44 1
  17    8   45 1
  18    9   18 ar
  19    9   22 ar
  20   10   23 am
  21   10   46 1
  22   11   12 1
  23   11   13 2
  24   12   14 1
  25   14   15 1
  26   14   16 1
  27   14   17 1
  28   15   47 1
  29   15   48 1
  30   15   49 1
  31   16   50 1
  32   16   51 1
  33   16   52 1
  34   17   53 1
  35   17   54 1
  36   17   55 1
  37   18   19 ar
  38   18   56 1
  39   19   20 ar
  40   19   57 1
  41   20   21 ar
  42   20   58 1
  43   21   22 ar
  44   21   59 1
  45   22   60 1
  46   23   24 1
  47   23   25 2
  48   24   26 1
  49   24   61 1
  50   24   62 1
  51   26   27 ar
  52   26   31 ar
  53   27   28 ar
  54   27   63 1
  55   28   29 ar
  56   28   64 1
  57   29   30 ar
  58   29   32 1
  59   30   31 ar
  60   30   65 1
  61   31   66 1
  62   32   33 1
  63   33   34 1
  64   33   67 1
  65   33   68 1
  66   34   35 ar
  67   34   39 ar
  68   35   36 ar
  69   35   69 1
  70   36   37 ar
  71   36   70 1
  72   37   38 ar
  73   37   71 1
  74   38   39 ar
  75   38   72 1
  76   39   73 1

#	End of record

