#	Name: ASD05430025
#	Creating user name:	WinNT
#	Creation time:	15. 06. 2019 20:59

#	Modifying user name:	WinNT
#	Modification time:	15. 06. 2019 20:59

#	Program:	/corina/corina34_cracker 3.40 0067  02.08.2006

@<TRIPOS>MOLECULE
ASD05430025
  68   73    0    0    0
SMALL
NO_CHARGES


@<TRIPOS>ATOM
   1 C1             0.0604     1.1743     0.4078 C.ar    
   2 C2             0.0200    -0.0134    -0.3218 C.ar    
   3 C3             1.1654    -0.4860    -0.9495 C.ar    
   4 C4             2.3471     0.2161    -0.8538 C.ar    
   5 C5             2.3950     1.4081    -0.1237 C.ar    
   6 C6             1.2420     1.8841     0.5077 C.ar    
   7 C7             4.8630    -0.0008     0.2152 C.3     
   8 C8             4.8270     1.5012     0.0670 C.2     
   9 C9             3.6566     2.1597    -0.0203 C.2     
  10 C10            6.2111    -0.4648     0.7624 C.3     
  11 C11            6.8326     0.5835     1.6878 C.3     
  12 N12            7.0821     1.8067     0.9274 N.pl3   
  13 C13            6.1089     2.2259     0.0212 C.2     
  14 N14           -1.1790    -0.7320    -0.4217 N.pl3   
  15 C15           -1.9918    -1.0931     0.6050 C.2     
  16 C16           -1.7560    -1.1983    -1.5745 C.2     
  17 C17           -2.8905    -1.8289    -1.2154 C.2     
  18 N18           -3.0096    -1.7496     0.1182 N.2     
  19 C19           -3.8608    -2.5031    -2.1508 C.3     
  20 C20           -0.9500     2.8598     1.7468 C.3     
  21 O21           -1.0640     1.6369     1.0162 O.3     
  22 C22            8.2937     2.6066     1.0928 C.3     
  23 C23            8.6931     3.1672    -0.2768 C.3     
  24 O24            7.5887     3.8412    -0.8711 O.3     
  25 N25            6.3428     3.1843    -0.8117 N.2     
  26 C26            8.0263     3.7415     2.0475 C.ar    
  27 C27            8.9837     4.1020     2.9774 C.ar    
  28 C28            8.7398     5.1429     3.8531 C.ar    
  29 C29            7.5360     5.8248     3.7989 C.ar    
  30 C30            6.5778     5.4629     2.8672 C.ar    
  31 C31            6.8261     4.4251     1.9890 C.ar    
  32 F32            7.2963     6.8423     4.6548 F       
  33 C33            6.0150    -1.7693     1.5450 C.3     
  34 C34            5.4805    -2.8466     0.5980 C.3     
  35 O35            6.3951    -3.0216    -0.4860 O.3     
  36 C36            6.5901    -1.8498    -1.2804 C.3     
  37 C37            7.1662    -0.7325    -0.4071 C.3     
  38 H38            1.1298    -1.4063    -1.5136 H       
  39 H39            3.2363    -0.1541    -1.3422 H       
  40 H40            1.2747     2.8043     1.0722 H       
  41 H41            4.0730    -0.3121     0.8986 H       
  42 H42            4.6945    -0.4607    -0.7586 H       
  43 H43            3.6429     3.2396    -0.0145 H       
  44 H44            6.1472     0.7977     2.5079 H       
  45 H45            7.7733     0.2047     2.0875 H       
  46 H46           -1.8239    -0.8741     1.6491 H       
  47 H47           -1.3744    -1.0817    -2.5781 H       
  48 H48           -3.5747    -3.5468    -2.2807 H       
  49 H49           -4.8655    -2.4513    -1.7313 H       
  50 H50           -3.8441    -1.9988    -3.1170 H       
  51 H51           -0.2145     2.7405     2.5423 H       
  52 H52           -0.6319     3.6565     1.0743 H       
  53 H53           -1.9167     3.1151     2.1809 H       
  54 H54            9.0967     1.9805     1.4816 H       
  55 H55            9.5197     3.8669    -0.1538 H       
  56 H56            9.0081     2.3490    -0.9244 H       
  57 H57            9.9224     3.5697     3.0197 H       
  58 H58            9.4877     5.4241     4.5797 H       
  59 H59            5.6385     5.9941     2.8240 H       
  60 H60            6.0789     4.1426     1.2622 H       
  61 H61            6.9694    -2.0912     1.9616 H       
  62 H62            5.3004    -1.6062     2.3518 H       
  63 H63            5.3745    -3.7866     1.1396 H       
  64 H64            4.5098    -2.5395     0.2088 H       
  65 H65            7.2840    -2.0718    -2.0912 H       
  66 H66            5.6349    -1.5299    -1.6967 H       
  67 H67            7.2770     0.1743    -1.0018 H       
  68 H68            8.1388    -1.0369    -0.0207 H       
@<TRIPOS>BOND
   1    1    2 ar
   2    1    6 ar
   3    1   21 1
   4    2    3 ar
   5    2   14 1
   6    3    4 ar
   7    3   38 1
   8    4    5 ar
   9    4   39 1
  10    5    6 ar
  11    5    9 1
  12    6   40 1
  13    7    8 1
  14    7   10 1
  15    7   41 1
  16    7   42 1
  17    8    9 2
  18    8   13 1
  19    9   43 1
  20   10   11 1
  21   10   33 1
  22   10   37 1
  23   11   12 1
  24   11   44 1
  25   11   45 1
  26   12   13 1
  27   12   22 1
  28   13   25 2
  29   14   15 1
  30   14   16 1
  31   15   18 2
  32   15   46 1
  33   16   17 2
  34   16   47 1
  35   17   18 1
  36   17   19 1
  37   19   48 1
  38   19   49 1
  39   19   50 1
  40   20   21 1
  41   20   51 1
  42   20   52 1
  43   20   53 1
  44   22   23 1
  45   22   26 1
  46   22   54 1
  47   23   24 1
  48   23   55 1
  49   23   56 1
  50   24   25 1
  51   26   27 ar
  52   26   31 ar
  53   27   28 ar
  54   27   57 1
  55   28   29 ar
  56   28   58 1
  57   29   30 ar
  58   29   32 1
  59   30   31 ar
  60   30   59 1
  61   31   60 1
  62   33   34 1
  63   33   61 1
  64   33   62 1
  65   34   35 1
  66   34   63 1
  67   34   64 1
  68   35   36 1
  69   36   37 1
  70   36   65 1
  71   36   66 1
  72   37   67 1
  73   37   68 1

#	End of record

