#	Name: ASD02500045
#	Creating user name:	WinNT
#	Creation time:	15. 06. 2019 20:22

#	Modifying user name:	WinNT
#	Modification time:	15. 06. 2019 20:22

#	Program:	/corina/corina34_cracker 3.40 0067  02.08.2006

@<TRIPOS>MOLECULE
ASD02500045
  59   62    0    0    0
SMALL
NO_CHARGES


@<TRIPOS>ATOM
   1 O1            -0.0163     1.3522     0.0095 O.3     
   2 C2             0.0021    -0.0041     0.0020 C.ar    
   3 C3             0.0231    -0.7056     1.2113 C.ar    
   4 N4             0.0253    -0.0447     2.3970 N.2     
   5 N5             0.0080     1.2450     2.4166 N.2     
   6 C6             0.0102     1.9091     3.6081 C.ar    
   7 C7             0.0314     1.1911     4.8096 C.ar    
   8 C8             0.0336     1.8559     6.0021 C.ar    
   9 C9             0.0142     3.2553     6.0234 C.ar    
  10 C10           -0.0074     3.9735     4.8217 C.ar    
  11 C11           -0.0028     3.3091     3.6294 C.ar    
  12 S12           -0.0295     4.2129     2.1171 S.o2    
  13 O13            1.3168     4.5755     1.8425 O.2     
  14 O14           -0.8317     3.4628     1.2154 O.2     
  15 O15           -0.7789     5.5111     2.3812 O.3     
  16 N16            0.0160     3.9195     7.2151 N.2     
  17 N17            0.0355     3.2578     8.3222 N.2     
  18 C18            0.0373     3.9229     9.5156 C.ar    
  19 C19            0.0584     3.2093    10.7175 C.ar    
  20 C20            0.0600     3.8876    11.9181 C.ar    
  21 C21            0.0407     5.2714    11.9351 C.ar    
  22 C22            0.0198     5.9848    10.7493 C.ar    
  23 C23            0.0238     5.3206     9.5408 C.ar    
  24 S24            0.0424     6.1292    13.4742 S.o2    
  25 O25           -0.5223     7.4084    13.2212 O.2     
  26 O26           -0.4809     5.2254    14.4378 O.2     
  27 O27            1.4964     6.3689    13.8548 O.3     
  28 C28            0.0421    -2.1683     1.1700 C.ar    
  29 C29            0.0630    -2.9309     2.3423 C.ar    
  30 C30            0.0800    -4.2927     2.2608 C.ar    
  31 C31            0.0772    -4.9343     1.0257 C.ar    
  32 C32            0.0574    -4.2212    -0.1352 C.ar    
  33 C33            0.0386    -2.8176    -0.0882 C.ar    
  34 C34            0.0174    -2.0484    -1.2662 C.ar    
  35 C35           -0.0059    -0.6907    -1.2115 C.ar    
  36 S36           -0.0319     0.2272    -2.7152 S.o2    
  37 O37           -1.3903     0.2817    -3.1286 O.2     
  38 O38            0.7596     1.3860    -2.4917 O.2     
  39 O39            0.7026    -0.5999    -3.7607 O.3     
  40 S40            0.1001    -6.6950     0.9624 S.o2    
  41 O41            0.6375    -7.0440    -0.3059 O.2     
  42 O42            0.6617    -7.1335     2.1919 O.2     
  43 O43           -1.3477    -7.1646     0.9596 O.3     
  44 H44            0.8616     1.7575     0.0033 H       
  45 H45            0.0456     0.1114     4.7932 H       
  46 H46            0.0499     1.3019     6.9291 H       
  47 H47           -0.0230     5.0533     4.8381 H       
  48 H48           -0.8518     6.0874     1.6082 H       
  49 H49            0.0730     2.1294    10.7058 H       
  50 H50            0.0759     3.3377    12.8474 H       
  51 H51            0.0049     7.0645    10.7704 H       
  52 H52            0.0074     5.8786     8.6163 H       
  53 H53            1.6114     6.8379    14.6926 H       
  54 H54            0.0661    -2.4446     3.3066 H       
  55 H55            0.0961    -4.8805     3.1666 H       
  56 H56            0.0562    -4.7326    -1.0864 H       
  57 H57            0.0161    -2.5434    -2.2262 H       
  58 H58            0.7467    -0.1830    -4.6321 H       
  59 H59           -1.4494    -8.1257     0.9261 H       
@<TRIPOS>BOND
   1    1    2 1
   2    1   44 1
   3    2    3 ar
   4    2   35 ar
   5    3    4 1
   6    3   28 ar
   7    4    5 2
   8    5    6 1
   9    6    7 ar
  10    6   11 ar
  11    7    8 ar
  12    7   45 1
  13    8    9 ar
  14    8   46 1
  15    9   10 ar
  16    9   16 1
  17   10   11 ar
  18   10   47 1
  19   11   12 1
  20   12   13 2
  21   12   14 2
  22   12   15 1
  23   15   48 1
  24   16   17 2
  25   17   18 1
  26   18   19 ar
  27   18   23 ar
  28   19   20 ar
  29   19   49 1
  30   20   21 ar
  31   20   50 1
  32   21   22 ar
  33   21   24 1
  34   22   23 ar
  35   22   51 1
  36   23   52 1
  37   24   25 2
  38   24   26 2
  39   24   27 1
  40   27   53 1
  41   28   29 ar
  42   28   33 ar
  43   29   30 ar
  44   29   54 1
  45   30   31 ar
  46   30   55 1
  47   31   32 ar
  48   31   40 1
  49   32   33 ar
  50   32   56 1
  51   33   34 ar
  52   34   35 ar
  53   34   57 1
  54   35   36 1
  55   36   37 2
  56   36   38 2
  57   36   39 1
  58   39   58 1
  59   40   41 2
  60   40   42 2
  61   40   43 1
  62   43   59 1

#	End of record

