#	Name: ASD02440072
#	Creating user name:	WinNT
#	Creation time:	15. 06. 2019 20:21

#	Modifying user name:	WinNT
#	Modification time:	15. 06. 2019 20:21

#	Program:	/corina/corina34_cracker 3.40 0067  02.08.2006

@<TRIPOS>MOLECULE
ASD02440072
  62   66    0    0    0
SMALL
NO_CHARGES


@<TRIPOS>ATOM
   1 N1             0.0436     1.4846     0.6611 N.am    
   2 C2             0.0488     0.1278     0.8324 C.2     
   3 S3             1.7188    -0.4112     0.5865 S.3     
   4 C4             2.3516     1.2139     0.2610 C.2     
   5 C5             1.1810     2.0933     0.3697 C.2     
   6 N6            -0.9848    -0.6298     1.1231 N.2     
   7 C7            -1.1996     2.2487     0.7918 C.3     
   8 C8            -1.3717     2.6867     2.2235 C.ar    
   9 O9             1.2521     3.2966     0.2031 O.2     
  10 C10            3.6301     1.5652    -0.0242 C.2     
  11 C11            4.7052     0.5670     0.0706 C.ar    
  12 C12            5.9060     0.7595    -0.6214 C.ar    
  13 C13            6.9118    -0.1796    -0.5288 C.ar    
  14 C14            6.7380    -1.3123     0.2456 C.ar    
  15 C15            5.5497    -1.5136     0.9365 C.ar    
  16 C16            4.5347    -0.5767     0.8576 C.ar    
  17 C17           -2.2047     2.2662     4.4289 C.ar    
  18 C18           -2.0431     1.8712     3.1172 C.ar    
  19 C19           -0.8528     3.9000     2.6395 C.ar    
  20 C20           -1.0067     4.3072     3.9485 C.ar    
  21 C21           -1.6881     3.4917     4.8543 C.ar    
  22 C22           -1.8577     3.9216     6.2574 C.2     
  23 O23           -2.4476     3.2083     7.0441 O.2     
  24 O24           -1.3581     5.1045     6.6646 O.3     
  25 O25            5.3862    -2.6294     1.6951 O.3     
  26 C26            6.4770    -3.5516     1.7361 C.3     
  27 C27            6.1160    -4.7176     2.6199 C.ar    
  28 C28            5.4980    -5.8296     2.0789 C.ar    
  29 C29            5.1669    -6.8992     2.8896 C.ar    
  30 C30            5.4540    -6.8570     4.2411 C.ar    
  31 C31            6.0728    -5.7455     4.7819 C.ar    
  32 C32            6.4079    -4.6777     3.9704 C.ar    
  33 C33           -0.8243    -1.9813     1.2646 C.ar    
  34 C34           -1.4187    -2.6500     2.3372 C.ar    
  35 C35           -1.2526    -4.0125     2.4735 C.ar    
  36 C36           -0.4993    -4.7167     1.5508 C.ar    
  37 C37            0.0929    -4.0607     0.4861 C.ar    
  38 C38           -0.0699    -2.6995     0.3338 C.ar    
  39 H39           -1.1566     3.1258     0.1462 H       
  40 H40           -2.0430     1.6231     0.4994 H       
  41 H41            3.8584     2.5782    -0.3210 H       
  42 H42            6.0450     1.6424    -1.2277 H       
  43 H43            7.8383    -0.0303    -1.0633 H       
  44 H44            7.5296    -2.0438     0.3133 H       
  45 H45            3.6105    -0.7324     1.3943 H       
  46 H46           -2.7295     1.6291     5.1253 H       
  47 H47           -2.4418     0.9234     2.7869 H       
  48 H48           -0.3257     4.5296     1.9379 H       
  49 H49           -0.6009     5.2543     4.2721 H       
  50 H50           -1.4940     5.3427     7.5919 H       
  51 H51            6.6873    -3.9107     0.7287 H       
  52 H52            7.3598    -3.0525     2.1356 H       
  53 H53            5.2737    -5.8625     1.0230 H       
  54 H54            4.6835    -7.7676     2.4670 H       
  55 H55            5.1947    -7.6924     4.8746 H       
  56 H56            6.2968    -5.7124     5.8379 H       
  57 H57            6.8946    -3.8108     4.3923 H       
  58 H58           -2.0067    -2.1016     3.0582 H       
  59 H59           -1.7114    -4.5309     3.3025 H       
  60 H60           -0.3725    -5.7834     1.6625 H       
  61 H61            0.6801    -4.6164    -0.2299 H       
  62 H62            0.3925    -2.1887    -0.4979 H       
@<TRIPOS>BOND
   1    1    2 1
   2    1    5 am
   3    1    7 1
   4    2    3 1
   5    2    6 2
   6    3    4 1
   7    4    5 1
   8    4   10 2
   9    5    9 2
  10    6   33 1
  11    7    8 1
  12    7   39 1
  13    7   40 1
  14    8   19 ar
  15    8   18 ar
  16   10   11 1
  17   10   41 1
  18   11   12 ar
  19   11   16 ar
  20   12   13 ar
  21   12   42 1
  22   13   14 ar
  23   13   43 1
  24   14   15 ar
  25   14   44 1
  26   15   16 ar
  27   15   25 1
  28   16   45 1
  29   17   18 ar
  30   17   21 ar
  31   17   46 1
  32   18   47 1
  33   19   20 ar
  34   19   48 1
  35   20   21 ar
  36   20   49 1
  37   21   22 1
  38   22   23 2
  39   22   24 1
  40   24   50 1
  41   25   26 1
  42   26   27 1
  43   26   51 1
  44   26   52 1
  45   27   28 ar
  46   27   32 ar
  47   28   29 ar
  48   28   53 1
  49   29   30 ar
  50   29   54 1
  51   30   31 ar
  52   30   55 1
  53   31   32 ar
  54   31   56 1
  55   32   57 1
  56   33   34 ar
  57   33   38 ar
  58   34   35 ar
  59   34   58 1
  60   35   36 ar
  61   35   59 1
  62   36   37 ar
  63   36   60 1
  64   37   38 ar
  65   37   61 1
  66   38   62 1

#	End of record

