#	Name: ASD01912591
#	Creating user name:	WinNT
#	Creation time:	15. 06. 2019 20:00

#	Modifying user name:	WinNT
#	Modification time:	15. 06. 2019 20:00

#	Program:	/corina/corina34_cracker 3.40 0067  02.08.2006

@<TRIPOS>MOLECULE
ASD01912591
  31   31    0    0    0
SMALL
NO_CHARGES


@<TRIPOS>ATOM
   1 C1            -0.0167     1.3830     0.0096 C.ar    
   2 C2             0.0021    -0.0041     0.0020 C.ar    
   3 C3            -1.1860    -0.7200     0.0100 C.ar    
   4 C4            -2.3933    -0.0569     0.0251 C.ar    
   5 C5            -2.4193     1.3423     0.0328 C.ar    
   6 C6            -1.2170     2.0584     0.0305 C.ar    
   7 C7            -3.7042     2.0567     0.0485 C.2     
   8 C8            -3.7284     3.5634     0.0569 C.3     
   9 O9            -4.7445     1.4334     0.0548 O.2     
  10 C10           -5.1571     4.0427     0.0726 C.2     
  11 C11           -5.4563     5.5197     0.0833 C.3     
  12 O12           -6.0622     3.2433     0.0766 O.2     
  13 C13           -6.9713     5.7330     0.0984 C.3     
  14 C14            1.2790     2.1525     0.0014 C.3     
  15 F15            1.1828    -0.6605    -0.0137 F       
  16 C16           -1.1560    -2.2267     0.0016 C.3     
  17 H17           -3.3176    -0.6154     0.0305 H       
  18 H18           -1.2303     3.1383     0.0364 H       
  19 H19           -3.2124     3.9302     0.9441 H       
  20 H20           -3.2288     3.9398    -0.8358 H       
  21 H21           -5.0167     5.9730     0.9717 H       
  22 H22           -5.0331     5.9826    -0.8081 H       
  23 H23           -7.1877     6.8013     0.1062 H       
  24 H24           -7.4109     5.2797    -0.7900 H       
  25 H25           -7.3945     5.2701     0.9899 H       
  26 H26            1.5815     2.3436    -1.0282 H       
  27 H27            1.1418     3.1005     0.5217 H       
  28 H28            2.0506     1.5701     0.5048 H       
  29 H29           -1.1385    -2.5955     1.0272 H       
  30 H30           -2.0436    -2.6050    -0.5055 H       
  31 H31           -0.2641    -2.5694    -0.5230 H       
@<TRIPOS>BOND
   1    1    2 ar
   2    1   14 1
   3    1    6 ar
   4    2    3 ar
   5    2   15 1
   6    3    4 ar
   7    3   16 1
   8    4    5 ar
   9    4   17 1
  10    5    6 ar
  11    5    7 1
  12    6   18 1
  13    7    8 1
  14    7    9 2
  15    8   10 1
  16    8   19 1
  17    8   20 1
  18   10   11 1
  19   10   12 2
  20   11   13 1
  21   11   21 1
  22   11   22 1
  23   13   23 1
  24   13   24 1
  25   13   25 1
  26   14   26 1
  27   14   27 1
  28   14   28 1
  29   16   29 1
  30   16   30 1
  31   16   31 1

#	End of record

