#	Name: ASD01912059
#	Creating user name:	WinNT
#	Creation time:	15. 06. 2019 19:58

#	Modifying user name:	WinNT
#	Modification time:	15. 06. 2019 19:58

#	Program:	/corina/corina34_cracker 3.40 0067  02.08.2006

@<TRIPOS>MOLECULE
ASD01912059
  59   62    0    0    0
SMALL
NO_CHARGES


@<TRIPOS>ATOM
   1 C1            -0.0166     1.3762     0.0096 C.ar    
   2 C2             0.0021    -0.0041     0.0020 C.ar    
   3 C3             1.2180    -0.6844    -0.0133 C.ar    
   4 C4             2.4128     0.0312    -0.0209 C.ar    
   5 C5             2.3871     1.4155    -0.0132 C.ar    
   6 C6             1.1706     2.0877     0.0021 C.ar    
   7 C7             1.2399    -2.1684    -0.0210 C.2     
   8 N8             2.3123    -2.9275     0.0579 N.2     
   9 C9             0.1163    -3.0132    -0.1079 C.2     
  10 C10            0.5557    -4.2904    -0.0831 C.2     
  11 N11            1.9020    -4.2661     0.0183 N.pl3   
  12 C12           -0.3055    -5.5252    -0.1527 C.3     
  13 C13            2.7810    -5.4367     0.0762 C.3     
  14 C14            3.1889    -5.8283    -1.3207 C.2     
  15 N15            4.0024    -6.8853    -1.5138 N.am    
  16 O16            2.7852    -5.1922    -2.2711 O.2     
  17 C17            4.4127    -7.2845    -2.8686 C.3     
  18 C18            4.5083    -7.6666    -0.3750 C.3     
  19 C19            6.0306    -7.7861    -0.5045 C.3     
  20 N20            6.3650    -8.3292    -1.8279 N.3     
  21 C21            5.9389    -7.4199    -2.8950 C.3     
  22 C22            7.7182    -8.6036    -1.9239 C.ar    
  23 N23            8.1985    -9.1017    -3.0537 N.ar    
  24 N24            8.5034    -8.3568    -0.8856 N.ar    
  25 C25            9.8009    -8.6072    -0.9445 C.ar    
  26 C26           10.3357    -9.1335    -2.1098 C.ar    
  27 C27            9.4868    -9.3747    -3.1786 C.ar    
  28 F28            1.1470     3.4384     0.0096 F       
  29 O29            3.5515     2.1172    -0.0202 O.3     
  30 C30           -1.6230    -5.2701     0.5820 C.3     
  31 C31           -0.5950    -5.8633    -1.6165 C.3     
  32 C32            4.7643     1.3615    -0.0354 C.3     
  33 H33           -0.9599     1.9022     0.0169 H       
  34 H34           -0.9258    -0.5567     0.0083 H       
  35 H35            3.3573    -0.4924    -0.0324 H       
  36 H36           -0.9135    -2.6963    -0.1809 H       
  37 H37            0.2166    -6.3591     0.3164 H       
  38 H38            3.6693    -5.1955     0.6600 H       
  39 H39            2.2516    -6.2657     0.5460 H       
  40 H40            3.9559    -8.2410    -3.1227 H       
  41 H41            4.1001    -6.5245    -3.5847 H       
  42 H42            4.2589    -7.1591     0.5569 H       
  43 H43            4.0608    -8.6604    -0.3851 H       
  44 H44            6.4838    -6.8014    -0.3903 H       
  45 H45            6.4102    -8.4536     0.2691 H       
  46 H46            6.2476    -7.8216    -3.8601 H       
  47 H47            6.3968    -6.4423    -2.7443 H       
  48 H48           10.4359    -8.4036    -0.0949 H       
  49 H49           11.3917    -9.3470    -2.1850 H       
  50 H50            9.8718    -9.7843    -4.1008 H       
  51 H51           -2.2459    -6.1632     0.5317 H       
  52 H52           -1.4168    -5.0292     1.6249 H       
  53 H53           -2.1451    -4.4361     0.1129 H       
  54 H54            0.3437    -6.0450    -2.1399 H       
  55 H55           -1.2178    -6.7563    -1.6668 H       
  56 H56           -1.1170    -5.0293    -2.0856 H       
  57 H57            5.6161     2.0416    -0.0396 H       
  58 H58            4.8091     0.7285     0.8508 H       
  59 H59            4.7927     0.7381    -0.9290 H       
@<TRIPOS>BOND
   1    1    2 ar
   2    1    6 ar
   3    1   33 1
   4    2    3 ar
   5    2   34 1
   6    3    4 ar
   7    3    7 1
   8    4    5 ar
   9    4   35 1
  10    5    6 ar
  11    5   29 1
  12    6   28 1
  13    7    8 2
  14    7    9 1
  15    8   11 1
  16    9   10 2
  17    9   36 1
  18   10   11 1
  19   10   12 1
  20   11   13 1
  21   12   30 1
  22   12   31 1
  23   12   37 1
  24   13   14 1
  25   13   38 1
  26   13   39 1
  27   14   15 am
  28   14   16 2
  29   15   17 1
  30   15   18 1
  31   17   21 1
  32   17   40 1
  33   17   41 1
  34   18   19 1
  35   18   42 1
  36   18   43 1
  37   19   20 1
  38   19   44 1
  39   19   45 1
  40   20   21 1
  41   20   22 1
  42   21   46 1
  43   21   47 1
  44   22   23 ar
  45   22   24 ar
  46   23   27 ar
  47   24   25 ar
  48   25   26 ar
  49   25   48 1
  50   26   27 ar
  51   26   49 1
  52   27   50 1
  53   29   32 1
  54   30   51 1
  55   30   52 1
  56   30   53 1
  57   31   54 1
  58   31   55 1
  59   31   56 1
  60   32   57 1
  61   32   58 1
  62   32   59 1

#	End of record

