#	Name: ASD04840042
#	Creating user name:	WinNT
#	Creation time:	15. 06. 2019 20:52

#	Modifying user name:	WinNT
#	Modification time:	15. 06. 2019 20:52

#	Program:	/corina/corina34_cracker 3.40 0067  02.08.2006

@<TRIPOS>MOLECULE
ASD04840042
  41   43    0    0    0
SMALL
NO_CHARGES


@<TRIPOS>ATOM
   1 C1            -0.0166     1.3754     0.0096 C.ar    
   2 C2             0.0021    -0.0041     0.0020 C.ar    
   3 C3             1.2218    -0.6823    -0.0132 C.ar    
   4 C4             2.4154     0.0410    -0.0207 C.ar    
   5 C5             2.3828     1.4202    -0.0130 C.ar    
   6 C6             1.1702     2.0864     0.0021 C.ar    
   7 C7             1.2493    -2.1604    -0.0210 C.2     
   8 S8            -0.1789    -3.1776    -0.0128 S.3     
   9 C9             0.7835    -4.6479    -0.0303 C.ar    
  10 C10            2.1439    -4.3233    -0.0417 C.ar    
  11 C11            2.3632    -2.8927    -0.0408 C.2     
  12 N12            0.4225    -5.9375    -0.0336 N.ar    
  13 C13            1.3225    -6.8932    -0.0472 C.ar    
  14 N14            2.6190    -6.6397    -0.0579 N.ar    
  15 C15            3.0747    -5.3961    -0.0566 C.ar    
  16 N16            4.4347    -5.1462    -0.0683 N.pl3   
  17 C17            5.3843    -6.2617    -0.0823 C.3     
  18 P18            5.4238    -7.0053    -1.7463 P.3     
  19 O19            6.3831    -8.1321    -1.7605 O.2     
  20 O20            3.9558    -7.5453    -2.1278 O.3     
  21 O21            5.8830    -5.8960    -2.8191 O.3     
  22 P22            7.0464    -5.6502     0.3496 P.3     
  23 O23            7.4686    -4.6305    -0.6365 O.2     
  24 O24            7.0115    -4.9935     1.8192 O.3     
  25 O25            8.0900    -6.8760     0.3342 O.3     
  26 C26            1.1422     3.5931     0.0110 C.3     
  27 H27           -0.9598     1.9014     0.0169 H       
  28 H28           -0.9251    -0.5579     0.0082 H       
  29 H29            3.3625    -0.4779    -0.0322 H       
  30 H30            3.3057     1.9811    -0.0188 H       
  31 H31            3.3499    -2.4537    -0.0489 H       
  32 H32            0.9918    -7.9213    -0.0495 H       
  33 H33            4.7599    -4.2324    -0.0673 H       
  34 H34            5.0734    -7.0127     0.6439 H       
  35 H35            3.2746    -6.8591    -2.1380 H       
  36 H36            5.9264    -6.2224    -3.7283 H       
  37 H37            6.7425    -5.6060     2.5174 H       
  38 H38            8.9969    -6.6234     0.5554 H       
  39 H39            1.1258     3.9622    -1.0145 H       
  40 H40            0.2504     3.9368     0.5351 H       
  41 H41            2.0300     3.9701     0.5187 H       
@<TRIPOS>BOND
   1    1    2 ar
   2    1    6 ar
   3    1   27 1
   4    2    3 ar
   5    2   28 1
   6    3    4 ar
   7    3    7 1
   8    4    5 ar
   9    4   29 1
  10    5    6 ar
  11    5   30 1
  12    6   26 1
  13    7    8 1
  14    7   11 2
  15    8    9 1
  16    9   10 ar
  17    9   12 ar
  18   10   11 1
  19   10   15 ar
  20   11   31 1
  21   12   13 ar
  22   13   14 ar
  23   13   32 1
  24   14   15 ar
  25   15   16 1
  26   16   17 1
  27   16   33 1
  28   17   18 1
  29   17   22 1
  30   17   34 1
  31   18   19 2
  32   18   20 1
  33   18   21 1
  34   20   35 1
  35   21   36 1
  36   22   23 2
  37   22   24 1
  38   22   25 1
  39   24   37 1
  40   25   38 1
  41   26   39 1
  42   26   40 1
  43   26   41 1

#	End of record

