#	Name: ASD01140231
#	Creating user name:	WinNT
#	Creation time:	15. 06. 2019 19:00

#	Modifying user name:	WinNT
#	Modification time:	15. 06. 2019 19:00

#	Program:	/corina/corina34_cracker 3.40 0067  02.08.2006

@<TRIPOS>MOLECULE
ASD01140231
  85   92    0    0    0
SMALL
NO_CHARGES


@<TRIPOS>ATOM
   1 C1            -0.7143     1.6091    -0.8891 C.ar    
   2 C2            -0.8167     0.2178    -0.9749 C.ar    
   3 C3             0.3327    -0.5599    -1.0307 C.ar    
   4 C4             1.5985     0.0404    -1.0016 C.ar    
   5 C5             1.6844     1.4332    -0.9394 C.ar    
   6 C6             2.7734    -0.8387    -1.0070 C.2     
   7 N7             3.8756    -0.6790    -1.6521 N.2     
   8 C8             4.0918     0.4701    -2.5389 C.3     
   9 C9             3.9943     1.7194    -1.7022 C.2     
  10 N10            2.9134     2.0978    -0.9755 N.pl3   
  11 C11           -2.1057    -0.4053    -1.0049 C.1     
  12 C12            3.2391     3.2472    -0.3238 C.2     
  13 C13            4.9518     2.6701    -1.5230 C.2     
  14 N14            4.4493     3.5934    -0.6600 N.2     
  15 C15            9.5904     8.9759    -7.1592 C.2     
  16 N16            9.0015     8.5874    -8.3221 N.2     
  17 C17            9.7205    10.3300    -7.2041 C.2     
  18 N18            9.2323    10.7408    -8.3997 N.pl3   
  19 C19            8.7803     9.6390    -9.0589 C.2     
  20 C20           10.2749    11.2313    -6.1306 C.3     
  21 N21            9.2157    12.1694    -5.7433 N.2     
  22 C22            8.6958    12.9923    -6.5876 C.2     
  23 C23            9.0140    13.1432    -8.0128 C.ar    
  24 C24            9.2272    12.0574    -8.8653 C.ar    
  25 C25            9.0981    14.4419    -8.5313 C.ar    
  26 C26            9.3610    14.6452    -9.8800 C.ar    
  27 C27            9.5396    13.5488   -10.7282 C.ar    
  28 C28            9.4486    15.9763   -10.4007 C.1     
  29 C29           10.2418     5.9588    -5.0164 C.3     
  30 O30            9.3212     6.1178    -3.9351 O.3     
  31 C31           -3.1624    -0.9161    -1.0295 C.1     
  32 C32            9.5203    17.0676   -10.8276 C.1     
  33 C33            8.4333     3.6625    -2.5297 C.3     
  34 C34            7.6507    13.8958    -6.0556 C.ar    
  35 C35            6.3327    13.7866    -6.5063 C.ar    
  36 C36            5.3623    14.6344    -6.0044 C.ar    
  37 C37            5.6953    15.5875    -5.0600 C.ar    
  38 C38            6.9995    15.6999    -4.6108 C.ar    
  39 C39            7.9762    14.8565    -5.0978 C.ar    
  40 C40            2.6799    -2.0557    -0.1692 C.ar    
  41 C41            2.6817    -3.3176    -0.7639 C.ar    
  42 C42            2.5942    -4.4478     0.0219 C.ar    
  43 C43            2.5043    -4.3336     1.3983 C.ar    
  44 C44            2.5013    -3.0871     1.9962 C.ar    
  45 C45            2.5951    -1.9458     1.2211 C.ar    
  46 F46            6.0073    12.8558    -7.4298 F       
  47 F47            2.5927    -0.7277     1.8056 F       
  48 C48            9.4712    12.2709   -10.2203 C.ar    
  49 C49            0.5265     2.2041    -0.8721 C.ar    
  50 O50            8.2878     4.0258    -3.9041 O.3     
  51 C51            8.0852     5.4242    -4.1173 C.3     
  52 C52            6.2841     2.6944    -2.1475 C.2     
  53 O53            7.1363     3.7035    -1.8783 O.3     
  54 O54            6.6161     1.8045    -2.9059 O.2     
  55 C55           10.0045     8.0960    -6.0547 C.2     
  56 O56            9.8087     6.7653    -6.1434 O.3     
  57 O57           10.5231     8.5692    -5.0624 O.2     
  58 H58           -1.6065     2.2158    -0.8407 H       
  59 H59            0.2502    -1.6348    -1.0966 H       
  60 H60            5.0808     0.4056    -2.9927 H       
  61 H61            3.3280     0.4856    -3.3164 H       
  62 H62            2.5988     3.7849     0.3598 H       
  63 H63            8.3148     9.6368   -10.0334 H       
  64 H64           10.5753    10.6366    -5.2679 H       
  65 H65           11.1326    11.7818    -6.5173 H       
  66 H66            8.9572    15.2905    -7.8782 H       
  67 H67            9.7302    13.7036   -11.7799 H       
  68 H68           11.2338     6.2804    -4.6992 H       
  69 H69           10.2772     4.9103    -5.3122 H       
  70 H70           -4.1076    -1.3730    -1.0514 H       
  71 H71            9.5845    18.0436   -11.2094 H       
  72 H72            8.8423     2.6544    -2.4618 H       
  73 H73            9.1089     4.3626    -2.0384 H       
  74 H74            4.3428    14.5521    -6.3510 H       
  75 H75            4.9341    16.2477    -4.6711 H       
  76 H76            7.2524    16.4473    -3.8733 H       
  77 H77            8.9932    14.9460    -4.7454 H       
  78 H78            2.7511    -3.4095    -1.8377 H       
  79 H79            2.5956    -5.4249    -0.4382 H       
  80 H80            2.4357    -5.2224     2.0080 H       
  81 H81            2.4305    -3.0048     3.0708 H       
  82 H82            9.6076    11.4256   -10.8785 H       
  83 H83            0.6030     3.2793    -0.8059 H       
  84 H84            7.3503     5.7977    -3.4042 H       
  85 H85            7.7227     5.5882    -5.1321 H       
@<TRIPOS>BOND
   1    1    2 ar
   2    1   49 ar
   3    1   58 1
   4    2    3 ar
   5    2   11 1
   6    3    4 ar
   7    3   59 1
   8    4    5 ar
   9    4    6 1
  10    5   49 ar
  11    5   10 1
  12    6    7 2
  13    6   40 1
  14    7    8 1
  15    8    9 1
  16    8   60 1
  17    8   61 1
  18    9   10 1
  19    9   13 2
  20   10   12 1
  21   11   31 3
  22   12   14 2
  23   12   62 1
  24   13   14 1
  25   13   52 1
  26   15   16 1
  27   15   17 2
  28   15   55 1
  29   16   19 2
  30   17   18 1
  31   17   20 1
  32   18   19 1
  33   18   24 1
  34   19   63 1
  35   20   21 1
  36   20   64 1
  37   20   65 1
  38   21   22 2
  39   22   23 1
  40   22   34 1
  41   23   24 ar
  42   23   25 ar
  43   24   48 ar
  44   25   26 ar
  45   25   66 1
  46   26   27 ar
  47   26   28 1
  48   27   48 ar
  49   27   67 1
  50   28   32 3
  51   29   56 1
  52   29   30 1
  53   29   68 1
  54   29   69 1
  55   30   51 1
  56   31   70 1
  57   32   71 1
  58   33   50 1
  59   33   53 1
  60   33   72 1
  61   33   73 1
  62   34   35 ar
  63   34   39 ar
  64   35   36 ar
  65   35   46 1
  66   36   37 ar
  67   36   74 1
  68   37   38 ar
  69   37   75 1
  70   38   39 ar
  71   38   76 1
  72   39   77 1
  73   40   41 ar
  74   40   45 ar
  75   41   42 ar
  76   41   78 1
  77   42   43 ar
  78   42   79 1
  79   43   44 ar
  80   43   80 1
  81   44   45 ar
  82   44   81 1
  83   45   47 1
  84   48   82 1
  85   49   83 1
  86   50   51 1
  87   51   84 1
  88   51   85 1
  89   52   53 1
  90   52   54 2
  91   55   56 1
  92   55   57 2

#	End of record

