#	Name: ASD00360004
#	Creating user name:	WinNT
#	Creation time:	15. 06. 2019 18:35

#	Modifying user name:	WinNT
#	Modification time:	15. 06. 2019 18:35

#	Program:	/corina/corina34_cracker 3.40 0067  02.08.2006

@<TRIPOS>MOLECULE
ASD00360004
  29   29    0    0    0
SMALL
NO_CHARGES


@<TRIPOS>ATOM
   1 C1            -0.0187     1.5267     0.0104 C.3     
   2 C2             0.0021    -0.0041     0.0020 C.3     
   3 C3             0.6675    -0.4908    -1.2890 C.3     
   4 C4            -0.0886     0.0869    -2.4893 C.3     
   5 C5            -0.1059     1.6142    -2.3847 C.3     
   6 O6            -0.7097     1.9988    -1.1479 O.3     
   7 O7             0.7423    -0.4778     1.1288 O.3     
   8 O8             0.5666    -0.3015    -3.6984 O.3     
   9 O9             1.3219     2.0215     0.0003 O.3     
  10 C10           -0.9109     2.1963    -3.5483 C.3     
  11 O11            0.6255    -1.9183    -1.3396 O.3     
  12 O12           -0.8301     3.6226    -3.5170 O.3     
  13 P13            1.7460     3.4185     0.6789 P.3     
  14 O14            1.5292     3.3291     2.2717 O.3     
  15 O15            3.2961     3.7192     0.3644 O.3     
  16 O16            0.9104     4.5086     0.1277 O.2     
  17 H17           -0.5292     1.8784     0.9070 H       
  18 H18           -1.0190    -0.3825     0.0506 H       
  19 H19            1.7038    -0.1541    -1.3144 H       
  20 H20           -1.1115    -0.2897    -2.4911 H       
  21 H21            0.9155     1.9928    -2.4237 H       
  22 H22            0.3794    -0.2025     1.9818 H       
  23 H23            0.6181    -1.2584    -3.8279 H       
  24 H24           -0.5041     1.8299    -4.4908 H       
  25 H25           -1.9530     1.8894    -3.4586 H       
  26 H26            1.0801    -2.3515    -0.6042 H       
  27 H27           -1.3185     4.0599    -4.2278 H       
  28 H28            2.0473     2.6345     2.7009 H       
  29 H29            3.6210     4.5473     0.7435 H       
@<TRIPOS>BOND
   1    1    2 1
   2    1    9 1
   3    1    6 1
   4    1   17 1
   5    2    3 1
   6    2    7 1
   7    2   18 1
   8    3    4 1
   9    3   11 1
  10    3   19 1
  11    4    5 1
  12    4    8 1
  13    4   20 1
  14    5    6 1
  15    5   10 1
  16    5   21 1
  17    7   22 1
  18    8   23 1
  19    9   13 1
  20   10   12 1
  21   10   24 1
  22   10   25 1
  23   11   26 1
  24   12   27 1
  25   13   14 1
  26   13   15 1
  27   13   16 2
  28   14   28 1
  29   15   29 1

#	End of record

