#	Name: ASD01885070
#	Creating user name:	WinNT
#	Creation time:	15. 06. 2019 19:49

#	Modifying user name:	WinNT
#	Modification time:	15. 06. 2019 19:49

#	Program:	/corina/corina34_cracker 3.40 0067  02.08.2006

@<TRIPOS>MOLECULE
ASD01885070
  61   66    0    0    0
SMALL
NO_CHARGES


@<TRIPOS>ATOM
   1 C1            -0.5149     0.7569     0.3796 C.2     
   2 C2             0.8818    -1.1755     0.2196 C.2     
   3 C3             2.0040    -0.3310     0.2711 C.2     
   4 C4             1.8482     1.0055     0.3739 C.2     
   5 N5             0.6010     1.5557     0.4278 N.pl3   
   6 C6             0.1412     2.8322     0.5278 C.2     
   7 N7            -1.1659     2.7800     0.5373 N.2     
   8 N8            -1.5643     1.5598     0.4458 N.2     
   9 C9             0.9837     4.0787     0.6126 C.3     
  10 C10            1.0623    -2.6674     0.1056 C.3     
  11 C11            1.2546     4.6081    -0.7971 C.3     
  12 N12            1.2261    -3.0342    -1.3074 N.3     
  13 C13            1.6390    -4.4381    -1.4425 C.3     
  14 C14            1.7213    -4.8022    -2.9268 C.3     
  15 N15            2.6771    -3.9084    -3.5956 N.3     
  16 C16            2.2642    -2.5046    -3.4604 C.3     
  17 C17            2.1819    -2.1404    -1.9761 C.3     
  18 C18           -0.3687    -0.6406     0.2731 C.2     
  19 Cl19          -1.7668    -1.6679     0.2113 Cl      
  20 C20            1.9988     5.9392    -0.9210 C.3     
  21 C21            2.7075     4.6306    -1.2762 C.3     
  22 C22            2.8409    -4.2753    -5.0086 C.3     
  23 C23            1.5420    -3.9876    -5.7641 C.3     
  24 C24            1.4691    -4.4138    -7.2317 C.3     
  25 C25            1.5872    -2.9318    -6.8705 C.3     
  26 C26            0.1401    -4.8999    -7.7500 C.ar    
  27 C27            0.0230    -6.1799    -8.2587 C.ar    
  28 C28           -1.1961    -6.6258    -8.7341 C.ar    
  29 C29           -2.2980    -5.7919    -8.7004 C.ar    
  30 C30           -2.1810    -4.5122    -8.1909 C.ar    
  31 C31           -0.9630    -4.0678    -7.7115 C.ar    
  32 H32            2.9968    -0.7541     0.2286 H       
  33 H33            2.7178     1.6447     0.4130 H       
  34 H34            0.4542     4.8367     1.1898 H       
  35 H35            1.9298     3.8453     1.1010 H       
  36 H36            1.9478    -2.9700     0.6646 H       
  37 H37            0.1858    -3.1715     0.5126 H       
  38 H38            0.4837     4.3918    -1.5367 H       
  39 H39            2.6162    -4.5759    -0.9796 H       
  40 H40            0.9092    -5.0808    -0.9503 H       
  41 H41            2.0554    -5.8346    -3.0300 H       
  42 H42            0.7380    -4.6905    -3.3837 H       
  43 H43            2.9941    -1.8618    -3.9526 H       
  44 H44            1.2871    -2.3667    -3.9234 H       
  45 H45            1.8478    -1.1080    -1.8729 H       
  46 H46            3.1652    -2.2522    -1.5192 H       
  47 H47            1.7177     6.5984    -1.7423 H       
  48 H48            2.2954     6.4378     0.0018 H       
  49 H49            3.4703     4.2683    -0.5872 H       
  50 H50            2.8926     4.4289    -2.3313 H       
  51 H51            3.6516    -3.6910    -5.4440 H       
  52 H52            3.0773    -5.3367    -5.0833 H       
  53 H53            0.6288    -4.0592    -5.1733 H       
  54 H54            2.3464    -4.8995    -7.6589 H       
  55 H55            0.7037    -2.3084    -7.0076 H       
  56 H56            2.5424    -2.4421    -7.0601 H       
  57 H57            0.8839    -6.8315    -8.2850 H       
  58 H58           -1.2875    -7.6256    -9.1322 H       
  59 H59           -3.2503    -6.1400    -9.0725 H       
  60 H60           -3.0419    -3.8605    -8.1649 H       
  61 H61           -0.8716    -3.0680    -7.3134 H       
@<TRIPOS>BOND
   1    1   18 1
   2    1    5 1
   3    1    8 2
   4    2    3 1
   5    2   10 1
   6    2   18 2
   7    3    4 2
   8    3   32 1
   9    4    5 1
  10    4   33 1
  11    5    6 1
  12    6    7 2
  13    6    9 1
  14    7    8 1
  15    9   11 1
  16    9   34 1
  17    9   35 1
  18   10   12 1
  19   10   36 1
  20   10   37 1
  21   11   20 1
  22   11   21 1
  23   11   38 1
  24   12   13 1
  25   12   17 1
  26   13   14 1
  27   13   39 1
  28   13   40 1
  29   14   15 1
  30   14   41 1
  31   14   42 1
  32   15   16 1
  33   15   22 1
  34   16   17 1
  35   16   43 1
  36   16   44 1
  37   17   45 1
  38   17   46 1
  39   18   19 1
  40   20   21 1
  41   20   47 1
  42   20   48 1
  43   21   49 1
  44   21   50 1
  45   22   23 1
  46   22   51 1
  47   22   52 1
  48   23   24 1
  49   23   25 1
  50   23   53 1
  51   24   26 1
  52   24   25 1
  53   24   54 1
  54   25   55 1
  55   25   56 1
  56   26   27 ar
  57   26   31 ar
  58   27   28 ar
  59   27   57 1
  60   28   29 ar
  61   28   58 1
  62   29   30 ar
  63   29   59 1
  64   30   31 ar
  65   30   60 1
  66   31   61 1

#	End of record

