#	Name: ASD01911199
#	Creating user name:	WinNT
#	Creation time:	15. 06. 2019 19:57

#	Modifying user name:	WinNT
#	Modification time:	15. 06. 2019 19:57

#	Program:	/corina/corina34_cracker 3.40 0067  02.08.2006

@<TRIPOS>MOLECULE
ASD01911199
  56   58    0    0    0
SMALL
NO_CHARGES


@<TRIPOS>ATOM
   1 C1             1.8302    -0.1735    -0.1716 C.ar    
   2 N2             1.3990    -1.3747    -0.4883 N.ar    
   3 C3             1.8979    -2.0439    -1.5207 C.ar    
   4 C4             2.9039    -1.4865    -2.3064 C.ar    
   5 C5             3.3778    -0.2214    -1.9957 C.ar    
   6 C6             2.8287     0.4420    -0.9098 C.ar    
   7 C7             1.3806    -3.3948    -1.8394 C.2     
   8 N8             0.4075    -3.9397    -1.0826 N.am    
   9 C9            -0.1308    -5.1844    -1.4253 C.ar    
  10 C10           -1.4309    -5.5051    -1.0575 C.ar    
  11 C11           -1.9601    -6.7348    -1.3977 C.ar    
  12 C12           -1.1961    -7.6467    -2.1042 C.ar    
  13 C13            0.1002    -7.3298    -2.4717 C.ar    
  14 C14            0.6322    -6.0997    -2.1392 C.ar    
  15 C15           -2.2634    -4.5126    -0.2875 C.3     
  16 N16           -2.8960    -3.5775    -1.2211 N.am    
  17 O17            1.8336    -4.0119    -2.7833 O.2     
  18 Cl18          -1.8644    -9.1913    -2.5301 Cl      
  19 C19           -4.1210    -3.8443    -1.7158 C.2     
  20 C20           -4.7006    -2.9759    -2.7630 C.ar    
  21 C21           -5.4556    -3.5335    -3.7952 C.ar    
  22 C22           -5.9967    -2.7165    -4.7741 C.ar    
  23 C23           -5.7889    -1.3456    -4.7291 C.ar    
  24 C24           -5.0385    -0.7871    -3.7047 C.ar    
  25 C25           -4.4989    -1.5962    -2.7183 C.ar    
  26 O26           -4.7492    -4.7986    -1.3011 O.2     
  27 C27           -2.1970    -2.3523    -1.6169 C.3     
  28 C28           -2.4015    -1.2796    -0.5454 C.3     
  29 O29           -4.8375     0.5565    -3.6654 O.3     
  30 C30           -5.4280     1.3315    -4.7107 C.3     
  31 O31           -6.7320    -3.2588    -5.7804 O.3     
  32 C32           -7.2601    -2.3581    -6.7560 C.3     
  33 H33            1.3972     0.3423     0.6727 H       
  34 H34            3.3092    -2.0323    -3.1455 H       
  35 H35            4.1571     0.2369    -2.5865 H       
  36 H36            3.1755     1.4290    -0.6416 H       
  37 H37            0.0805    -3.4687    -0.3002 H       
  38 H38           -2.9711    -6.9848    -1.1115 H       
  39 H39            0.6946    -8.0437    -3.0226 H       
  40 H40            1.6436    -5.8528    -2.4265 H       
  41 H41           -3.0332    -5.0422     0.2738 H       
  42 H42           -1.6251    -3.9610     0.4027 H       
  43 H43           -5.6175    -4.6007    -3.8312 H       
  44 H44           -6.2123    -0.7114    -5.4939 H       
  45 H45           -3.9151    -1.1606    -1.9209 H       
  46 H46           -1.1324    -2.5600    -1.7246 H       
  47 H47           -2.5958    -1.9974    -2.5672 H       
  48 H48           -3.4675    -1.1546    -0.3551 H       
  49 H49           -1.9017    -1.5845     0.3740 H       
  50 H50           -1.9811    -0.3354    -0.8916 H       
  51 H51           -6.5096     1.1966    -4.6965 H       
  52 H52           -5.1913     2.3848    -4.5602 H       
  53 H53           -5.0337     1.0044    -5.6728 H       
  54 H54           -7.8248    -2.9193    -7.5005 H       
  55 H55           -7.9174    -1.6384    -6.2680 H       
  56 H56           -6.4410    -1.8296    -7.2437 H       
@<TRIPOS>BOND
   1    1    2 ar
   2    1    6 ar
   3    1   33 1
   4    2    3 ar
   5    3    4 ar
   6    3    7 1
   7    4    5 ar
   8    4   34 1
   9    5    6 ar
  10    5   35 1
  11    6   36 1
  12    7    8 am
  13    7   17 2
  14    8    9 1
  15    8   37 1
  16    9   10 ar
  17    9   14 ar
  18   10   11 ar
  19   10   15 1
  20   11   12 ar
  21   11   38 1
  22   12   13 ar
  23   12   18 1
  24   13   14 ar
  25   13   39 1
  26   14   40 1
  27   15   16 1
  28   15   41 1
  29   15   42 1
  30   16   19 am
  31   16   27 1
  32   19   20 1
  33   19   26 2
  34   20   21 ar
  35   20   25 ar
  36   21   22 ar
  37   21   43 1
  38   22   23 ar
  39   22   31 1
  40   23   24 ar
  41   23   44 1
  42   24   25 ar
  43   24   29 1
  44   25   45 1
  45   27   28 1
  46   27   46 1
  47   27   47 1
  48   28   48 1
  49   28   49 1
  50   28   50 1
  51   29   30 1
  52   30   51 1
  53   30   52 1
  54   30   53 1
  55   31   32 1
  56   32   54 1
  57   32   55 1
  58   32   56 1

#	End of record

