#	Name: ASD08170331
#	Creating user name:	WinNT
#	Creation time:	15. 06. 2019 21:17

#	Modifying user name:	WinNT
#	Modification time:	15. 06. 2019 21:17

#	Program:	/corina/corina34_cracker 3.40 0067  02.08.2006

@<TRIPOS>MOLECULE
ASD08170331
  71   74    0    0    0
SMALL
NO_CHARGES


@<TRIPOS>ATOM
   1 C1            -0.0155     1.2910     0.0091 C.2     
   2 N2             0.0021    -0.0041     0.0020 N.2     
   3 N3            -1.1192    -0.5842     0.0100 N.2     
   4 C4            -2.1833     0.1604     0.0246 C.2     
   5 S5            -1.7028     1.8047     0.0357 S.3     
   6 C6             1.1892     2.1964     0.0025 C.3     
   7 C7             4.5555     4.7703    -3.3985 C.3     
   8 C8             4.8121     4.9823    -4.8682 C.2     
   9 S9             5.8449     3.9900    -5.8979 S.3     
  10 C10            5.4617     5.0028    -7.2253 C.2     
  11 N11            4.6513     5.9329    -6.8189 N.2     
  12 N12            4.3095     5.9226    -5.6036 N.2     
  13 N13            5.9396     4.8540    -8.5229 N.am    
  14 C14            6.7801     3.8431    -8.8197 C.2     
  15 C15            7.2979     3.6820   -10.2258 C.3     
  16 O16            7.1198     3.0632    -7.9553 O.2     
  17 C17            8.2118     2.4855   -10.2904 C.ar    
  18 C18            7.6962     1.2369   -10.5841 C.ar    
  19 N19           -3.4954    -0.3008     0.0352 N.am    
  20 C20           -4.5181     0.5769     0.0495 C.2     
  21 C21           -5.9398     0.0771     0.0610 C.3     
  22 O22           -4.2942     1.7689     0.0532 O.2     
  23 C23           -6.8847     1.2509     0.0761 C.ar    
  24 C24           -7.3299     1.7952    -1.1141 C.ar    
  25 C25            1.5828     2.5110    -1.4422 C.3     
  26 C26            3.3418     3.8560    -3.2193 C.3     
  27 C27           -7.3108     1.7798     1.2801 C.ar    
  28 C28           -8.1777     2.8565     1.2939 C.ar    
  29 C29           -8.6180     3.4047     0.1037 C.ar    
  30 C30           -8.1966     2.8720    -1.1003 C.ar    
  31 C31            8.5345     0.1394   -10.6434 C.ar    
  32 C32            9.8885     0.2904   -10.4094 C.ar    
  33 C33           10.4043     1.5391   -10.1166 C.ar    
  34 C34            9.5666     2.6374   -10.0616 C.ar    
  35 S35            3.0330     3.6007    -1.4501 S.3     
  36 C36            5.5293     5.7961    -9.5671 C.3     
  37 C37            6.5129     6.9672    -9.6124 C.3     
  38 C38           -3.7657    -1.7406     0.0307 C.3     
  39 C39           -3.8457    -2.2490     1.4716 C.3     
  40 H40            0.9501     3.1232     0.5240 H       
  41 H41            2.0193     1.7002     0.5054 H       
  42 H42            5.4296     4.3078    -2.9400 H       
  43 H43            4.3604     5.7307    -2.9214 H       
  44 H44            6.4597     3.5362   -10.9071 H       
  45 H45            7.8496     4.5766   -10.5146 H       
  46 H46            6.6383     1.1190   -10.7669 H       
  47 H47           -6.1209    -0.5237    -0.8302 H       
  48 H48           -6.1034    -0.5325     0.9496 H       
  49 H49           -7.0002     1.3794    -2.0547 H       
  50 H50            1.8219     1.5842    -1.9637 H       
  51 H51            0.7527     3.0071    -1.9450 H       
  52 H52            2.4677     4.3185    -3.6778 H       
  53 H53            3.5369     2.8955    -3.6964 H       
  54 H54           -6.9668     1.3515     2.2099 H       
  55 H55           -8.5111     3.2693     2.2346 H       
  56 H56           -9.2955     4.2457     0.1145 H       
  57 H57           -8.5407     3.3002    -2.0301 H       
  58 H58            8.1315    -0.8361   -10.8722 H       
  59 H59           10.5434    -0.5672   -10.4550 H       
  60 H60           11.4621     1.6570    -9.9335 H       
  61 H61            9.9696     3.6129    -9.8329 H       
  62 H62            5.5234     5.2891   -10.5319 H       
  63 H63            4.5293     6.1698    -9.3468 H       
  64 H64            6.2076     7.6682   -10.3893 H       
  65 H65            6.5188     7.4743    -8.6475 H       
  66 H66            7.5128     6.5936    -9.8327 H       
  67 H67           -4.7125    -1.9310    -0.4748 H       
  68 H68           -2.9632    -2.2594    -0.4936 H       
  69 H69           -2.8990    -2.0587     1.9771 H       
  70 H70           -4.6483    -1.7302     1.9959 H       
  71 H71           -4.0469    -3.3203     1.4683 H       
@<TRIPOS>BOND
   1    1    2 2
   2    1    6 1
   3    1    5 1
   4    2    3 1
   5    3    4 2
   6    4    5 1
   7    4   19 1
   8    6   25 1
   9    6   40 1
  10    6   41 1
  11    7    8 1
  12    7   26 1
  13    7   42 1
  14    7   43 1
  15    8    9 1
  16    8   12 2
  17    9   10 1
  18   10   11 2
  19   10   13 1
  20   11   12 1
  21   13   14 am
  22   13   36 1
  23   14   15 1
  24   14   16 2
  25   15   17 1
  26   15   44 1
  27   15   45 1
  28   17   18 ar
  29   17   34 ar
  30   18   31 ar
  31   18   46 1
  32   19   20 am
  33   19   38 1
  34   20   21 1
  35   20   22 2
  36   21   23 1
  37   21   47 1
  38   21   48 1
  39   23   24 ar
  40   23   27 ar
  41   24   30 ar
  42   24   49 1
  43   25   35 1
  44   25   50 1
  45   25   51 1
  46   26   35 1
  47   26   52 1
  48   26   53 1
  49   27   28 ar
  50   27   54 1
  51   28   29 ar
  52   28   55 1
  53   29   30 ar
  54   29   56 1
  55   30   57 1
  56   31   32 ar
  57   31   58 1
  58   32   33 ar
  59   32   59 1
  60   33   34 ar
  61   33   60 1
  62   34   61 1
  63   36   37 1
  64   36   62 1
  65   36   63 1
  66   37   64 1
  67   37   65 1
  68   37   66 1
  69   38   39 1
  70   38   67 1
  71   38   68 1
  72   39   69 1
  73   39   70 1
  74   39   71 1

#	End of record

