#	Name: ASD00430004
#	Creating user name:	WinNT
#	Creation time:	15. 06. 2019 18:35

#	Modifying user name:	WinNT
#	Modification time:	15. 06. 2019 18:35

#	Program:	/corina/corina34_cracker 3.40 0067  02.08.2006

@<TRIPOS>MOLECULE
ASD00430004
  50   52    0    0    0
SMALL
NO_CHARGES


@<TRIPOS>ATOM
   1 C1            -0.0180     1.4761     0.0102 C.2     
   2 C2             0.0021    -0.0041     0.0020 C.2     
   3 N3             2.3879     0.1480    -0.0195 N.am    
   4 C4             2.3215     1.4870    -0.0121 C.2     
   5 N5             1.1506     2.1439     0.0026 N.am    
   6 C6            -1.0633    -0.9062     0.0069 C.2     
   7 C7            -0.6938    -2.1989    -0.0039 C.2     
   8 S8             1.0560    -2.3272    -0.0211 S.3     
   9 C9             1.2436    -0.6293    -0.0132 C.2     
  10 O10           -1.0746     2.0797     0.0185 O.2     
  11 O11            3.3550     2.1272    -0.0185 O.2     
  12 C12            1.1448     3.6089     0.0100 C.3     
  13 C13            1.1564     4.1116     1.4550 C.3     
  14 O14            2.3848     3.7352     2.0806 O.3     
  15 C15           -2.5052    -0.4683     0.0229 C.3     
  16 C16           -1.6167    -3.3338    -0.0017 C.2     
  17 O17           -2.8178    -3.1411     0.0107 O.2     
  18 O18           -1.1359    -4.5944    -0.0134 O.3     
  19 C19           -2.0943    -5.6544    -0.0104 C.3     
  20 C20           -1.3664    -7.0001    -0.0249 C.3     
  21 C21            3.6991    -0.5053    -0.0361 C.3     
  22 C22            4.1701    -0.7400     1.4006 C.3     
  23 C23            5.5189    -1.4120     1.3835 C.ar    
  24 C24            6.6714    -0.6488     1.3757 C.ar    
  25 C25            7.9085    -1.2652     1.3601 C.ar    
  26 C26            7.9932    -2.6450     1.3527 C.ar    
  27 C27            6.8408    -3.4082     1.3614 C.ar    
  28 C28            5.6036    -2.7918     1.3815 C.ar    
  29 H29            2.0286     3.9783    -0.5103 H       
  30 H30            0.2487     3.9713    -0.4936 H       
  31 H31            1.0626     5.1976     1.4627 H       
  32 H32            0.3213     3.6710     1.9997 H       
  33 H33            2.4615     4.0218     3.0009 H       
  34 H34           -2.8625    -0.3569    -1.0008 H       
  35 H35           -3.1066    -1.2173     0.5382 H       
  36 H36           -2.5894     0.4859     0.5430 H       
  37 H37           -2.7107    -5.5843     0.8858 H       
  38 H38           -2.7274    -5.5742    -0.8940 H       
  39 H39           -0.7333    -7.0802     0.8588 H       
  40 H40           -2.0975    -7.8086    -0.0226 H       
  41 H41           -0.7500    -7.0701    -0.9211 H       
  42 H42            3.6222    -1.4613    -0.5540 H       
  43 H43            4.4160     0.1318    -0.5540 H       
  44 H44            4.2471     0.2160     1.9185 H       
  45 H45            3.4532    -1.3771     1.9185 H       
  46 H46            6.6052     0.4292     1.3815 H       
  47 H47            8.8090    -0.6689     1.3532 H       
  48 H48            8.9598    -3.1266     1.3397 H       
  49 H49            6.9069    -4.4862     1.3553 H       
  50 H50            4.7033    -3.3881     1.3920 H       
@<TRIPOS>BOND
   1    1    2 1
   2    1    5 am
   3    1   10 2
   4    2    6 1
   5    2    9 2
   6    3    4 am
   7    3   21 1
   8    3    9 1
   9    4    5 am
  10    4   11 2
  11    5   12 1
  12    6    7 2
  13    6   15 1
  14    7    8 1
  15    7   16 1
  16    8    9 1
  17   12   13 1
  18   12   29 1
  19   12   30 1
  20   13   14 1
  21   13   31 1
  22   13   32 1
  23   14   33 1
  24   15   34 1
  25   15   35 1
  26   15   36 1
  27   16   17 2
  28   16   18 1
  29   18   19 1
  30   19   20 1
  31   19   37 1
  32   19   38 1
  33   20   39 1
  34   20   40 1
  35   20   41 1
  36   21   22 1
  37   21   42 1
  38   21   43 1
  39   22   23 1
  40   22   44 1
  41   22   45 1
  42   23   24 ar
  43   23   28 ar
  44   24   25 ar
  45   24   46 1
  46   25   26 ar
  47   25   47 1
  48   26   27 ar
  49   26   48 1
  50   27   28 ar
  51   27   49 1
  52   28   50 1

#	End of record

