#	Name: ASD01813612
#	Creating user name:	WinNT
#	Creation time:	15. 06. 2019 19:30

#	Modifying user name:	WinNT
#	Modification time:	15. 06. 2019 19:30

#	Program:	/corina/corina34_cracker 3.40 0067  02.08.2006

@<TRIPOS>MOLECULE
ASD01813612
  42   45    0    0    0
SMALL
NO_CHARGES


@<TRIPOS>ATOM
   1 C1             6.8986     1.6512    -0.3629 C.ar    
   2 C2             6.9816     0.2673    -0.3743 C.ar    
   3 C3             5.8457    -0.5085    -0.2636 C.ar    
   4 C4             4.5972     0.0979    -0.1380 C.ar    
   5 C5             4.5146     1.5008    -0.1260 C.ar    
   6 C6             5.6728     2.2740    -0.2394 C.ar    
   7 N7             3.4549    -0.6668    -0.0276 N.pl3   
   8 C8             2.2333    -0.1323     0.0941 C.2     
   9 C9             2.0267     1.2322     0.1178 C.2     
  10 C10            3.1885     2.1295     0.0074 C.2     
  11 O11            3.0589     3.3411     0.0237 O.2     
  12 C12            0.6697     1.7801     0.2519 C.2     
  13 O13            0.4807     3.1147     0.2738 O.3     
  14 O14           -0.2825     1.0298     0.3432 O.2     
  15 C15            3.5834    -2.1260    -0.0448 C.3     
  16 C16            3.4401    -2.6263    -1.4591 C.ar    
  17 N17            2.2380    -2.8233    -1.9599 N.ar    
  18 C18            2.0643    -3.2623    -3.1998 C.ar    
  19 C19            3.1606    -3.5306    -4.0159 C.ar    
  20 C20            4.4364    -3.3324    -3.5154 C.ar    
  21 C21            4.5729    -2.8670    -2.2158 C.ar    
  22 F22            5.9439    -1.8559    -0.2774 F       
  23 F23            5.5936     3.6226    -0.2275 F       
  24 C24            0.6909    -3.4695    -3.7211 C.ar    
  25 C25           -0.4237    -3.3143    -2.8910 C.ar    
  26 C26           -1.6848    -3.5166    -3.4182 C.ar    
  27 N27           -1.8431    -3.8511    -4.6839 N.ar    
  28 C28           -0.8182    -4.0072    -5.4996 C.ar    
  29 C29            0.4752    -3.8194    -5.0570 C.ar    
  30 Cl30          -0.2259    -2.8748    -1.2232 Cl      
  31 H31            7.7971     2.2445    -0.4463 H       
  32 H32            7.9461    -0.2089    -0.4714 H       
  33 H33            1.3812    -0.7908     0.1762 H       
  34 H34           -0.4298     3.4278     0.3637 H       
  35 H35            4.5618    -2.4092     0.3433 H       
  36 H36            2.8043    -2.5668     0.5772 H       
  37 H37            3.0176    -3.8885    -5.0247 H       
  38 H38            5.3056    -3.5321    -4.1245 H       
  39 H39            5.5542    -2.7018    -1.7961 H       
  40 H40           -2.5521    -3.3996    -2.7854 H       
  41 H41           -0.9941    -4.2818    -6.5293 H       
  42 H42            1.3091    -3.9492    -5.7308 H       
@<TRIPOS>BOND
   1    1    2 ar
   2    1    6 ar
   3    1   31 1
   4    2    3 ar
   5    2   32 1
   6    3    4 ar
   7    3   22 1
   8    4    5 ar
   9    4    7 1
  10    5    6 ar
  11    5   10 1
  12    6   23 1
  13    7    8 1
  14    7   15 1
  15    8    9 2
  16    8   33 1
  17    9   10 1
  18    9   12 1
  19   10   11 2
  20   12   13 1
  21   12   14 2
  22   13   34 1
  23   15   16 1
  24   15   35 1
  25   15   36 1
  26   16   17 ar
  27   16   21 ar
  28   17   18 ar
  29   18   19 ar
  30   18   24 1
  31   19   20 ar
  32   19   37 1
  33   20   21 ar
  34   20   38 1
  35   21   39 1
  36   24   25 ar
  37   24   29 ar
  38   25   26 ar
  39   25   30 1
  40   26   27 ar
  41   26   40 1
  42   27   28 ar
  43   28   29 ar
  44   28   41 1
  45   29   42 1

#	End of record

