#	Name: ASD01870494
#	Creating user name:	WinNT
#	Creation time:	15. 06. 2019 19:39

#	Modifying user name:	WinNT
#	Modification time:	15. 06. 2019 19:39

#	Program:	/corina/corina34_cracker 3.40 0067  02.08.2006

@<TRIPOS>MOLECULE
ASD01870494
  39   42    0    0    0
SMALL
NO_CHARGES


@<TRIPOS>ATOM
   1 C1            -0.0307     1.4001    -0.2311 C.ar    
   2 C2            -0.0278     0.0165    -0.1032 C.ar    
   3 C3             1.1543    -0.6622     0.1421 C.ar    
   4 C4             2.3481     0.0292     0.2635 C.ar    
   5 C5             2.3596     1.4099     0.1381 C.ar    
   6 C6             1.1567     2.1022    -0.1121 C.ar    
   7 C7             3.4134     2.4425     0.2064 C.2     
   8 N8             2.8481     3.6468     0.0078 N.am    
   9 C9             1.5219     3.5328    -0.1869 C.2     
  10 O10            0.7535     4.4511    -0.3902 O.2     
  11 O11            4.5936     2.2383     0.4085 O.2     
  12 C12            3.5494     4.8625     0.0054 C.ar    
  13 C13            4.0804     5.3551    -1.1789 C.ar    
  14 C14            4.7707     6.5506    -1.1816 C.ar    
  15 C15            4.9343     7.2612     0.0006 C.ar    
  16 C16            4.4030     6.7693     1.1855 C.ar    
  17 C17            3.7073     5.5756     1.1872 C.ar    
  18 Cl18           3.0367     4.9635     2.6668 Cl      
  19 N19            5.6351     8.4731    -0.0024 N.am    
  20 C20            6.4071     8.8077     1.0505 C.2     
  21 C21            7.2241    10.0318     1.0049 C.2     
  22 O22            6.4288     8.0984     2.0386 O.2     
  23 C23            8.0205    10.4275     2.0236 C.2     
  24 S24            8.7959    11.8858     1.5831 S.3     
  25 C25            8.0129    11.8833     0.0655 C.2     
  26 N26            7.2524    10.8520    -0.0488 N.2     
  27 C27            8.1953     9.7020     3.3328 C.3     
  28 F28           -1.1852    -0.6709    -0.2184 F       
  29 H29           -0.9541     1.9249    -0.4267 H       
  30 H30            1.1450    -1.7377     0.2397 H       
  31 H31            3.2667    -0.5053     0.4554 H       
  32 H32            3.9537     4.8027    -2.0982 H       
  33 H33            5.1839     6.9333    -2.1031 H       
  34 H34            4.5304     7.3215     2.1049 H       
  35 H35            5.5652     9.0719    -0.7622 H       
  36 H36            8.1417    12.6399    -0.6944 H       
  37 H37            9.0170     8.9910     3.2474 H       
  38 H38            8.4182    10.4221     4.1202 H       
  39 H39            7.2770     9.1683     3.5779 H       
@<TRIPOS>BOND
   1    1    2 ar
   2    1    6 ar
   3    1   29 1
   4    2    3 ar
   5    2   28 1
   6    3    4 ar
   7    3   30 1
   8    4    5 ar
   9    4   31 1
  10    5    7 1
  11    5    6 ar
  12    6    9 1
  13    7    8 am
  14    7   11 2
  15    8    9 am
  16    8   12 1
  17    9   10 2
  18   12   13 ar
  19   12   17 ar
  20   13   14 ar
  21   13   32 1
  22   14   15 ar
  23   14   33 1
  24   15   16 ar
  25   15   19 1
  26   16   17 ar
  27   16   34 1
  28   17   18 1
  29   19   20 am
  30   19   35 1
  31   20   21 1
  32   20   22 2
  33   21   23 2
  34   21   26 1
  35   23   24 1
  36   23   27 1
  37   24   25 1
  38   25   26 2
  39   25   36 1
  40   27   37 1
  41   27   38 1
  42   27   39 1

#	End of record

