#	Name: ASD02038743
#	Creating user name:	WinNT
#	Creation time:	15. 06. 2019 20:17

#	Modifying user name:	WinNT
#	Modification time:	15. 06. 2019 20:17

#	Program:	/corina/corina34_cracker 3.40 0067  02.08.2006

@<TRIPOS>MOLECULE
ASD02038743
  50   52    0    0    0
SMALL
NO_CHARGES


@<TRIPOS>ATOM
   1 C1            -1.1645    -0.2683     0.7394 C.2     
   2 C2             0.0789     0.2991     0.1895 C.2     
   3 N3             1.1687    -0.4803     0.0439 N.am    
   4 C4             1.1469    -1.8661     0.5187 C.3     
   5 C5             0.8271    -2.7861    -0.6313 C.ar    
   6 C6             2.3751     0.0581    -0.5893 C.3     
   7 C7             3.3452     0.5419     0.4905 C.3     
   8 O8             0.1220     1.4710    -0.1330 O.2     
   9 N9            -1.3517    -1.5513     1.1420 N.2     
  10 C10           -2.5741    -1.6842     1.5692 C.2     
  11 N11           -3.2145    -0.4916     1.4558 N.pl3   
  12 C12           -2.3357     0.4011     0.9423 C.2     
  13 C13           -4.6048    -0.2187     1.8283 C.3     
  14 C14            1.8487    -3.4144    -1.3173 C.ar    
  15 C15            4.6510     1.0038    -0.1635 C.3     
  16 C16            5.5846     1.5588     0.9154 C.3     
  17 O17            4.9331     2.6291     1.6026 O.3     
  18 C18            3.7308     2.2457     2.2732 C.3     
  19 C19            2.7227     1.7183     1.2488 C.3     
  20 C20           -0.4885    -3.0052    -0.9952 C.ar    
  21 C21           -0.7852    -3.8489    -2.0499 C.ar    
  22 C22            0.2327    -4.4749    -2.7426 C.ar    
  23 C23            1.5536    -4.2611    -2.3757 C.ar    
  24 O24            2.5570    -4.8755    -3.0559 O.3     
  25 C25            2.1794    -5.7286    -4.1383 C.3     
  26 F26            1.4770    -4.9865    -5.0938 F       
  27 F27            3.3267    -6.2751    -4.7234 F       
  28 F28            1.3650    -6.7595    -3.6574 F       
  29 H29            2.1226    -2.1245     0.9303 H       
  30 H30            0.3863    -1.9732     1.2921 H       
  31 H31            2.8522    -0.7211    -1.1836 H       
  32 H32            2.1046     0.8934    -1.2352 H       
  33 H33            3.5533    -0.2721     1.1849 H       
  34 H34           -3.0091    -2.5958     1.9516 H       
  35 H35           -2.5274     1.4420     0.7274 H       
  36 H36           -4.6458     0.1027     2.8690 H       
  37 H37           -5.0045     0.5685     1.1889 H       
  38 H38           -5.1987    -1.1242     1.7041 H       
  39 H39            2.8761    -3.2461    -1.0300 H       
  40 H40            5.1290     0.1589    -0.6592 H       
  41 H41            4.4363     1.7827    -0.8952 H       
  42 H42            5.8312     0.7685     1.6243 H       
  43 H43            6.4985     1.9284     0.4503 H       
  44 H44            3.9532     1.4643     2.9999 H       
  45 H45            3.3092     3.1101     2.7862 H       
  46 H46            2.4691     2.5115     0.5456 H       
  47 H47            1.8216     1.3842     1.7631 H       
  48 H48           -1.2858    -2.5169    -0.4546 H       
  49 H49           -1.8138    -4.0187    -2.3321 H       
  50 H50            0.0004    -5.1337    -3.5662 H       
@<TRIPOS>BOND
   1    1    2 1
   2    1    9 1
   3    1   12 2
   4    2    3 am
   5    2    8 2
   6    3    4 1
   7    3    6 1
   8    4    5 1
   9    4   29 1
  10    4   30 1
  11    5   14 ar
  12    5   20 ar
  13    6    7 1
  14    6   31 1
  15    6   32 1
  16    7   15 1
  17    7   19 1
  18    7   33 1
  19    9   10 2
  20   10   11 1
  21   10   34 1
  22   11   12 1
  23   11   13 1
  24   12   35 1
  25   13   36 1
  26   13   37 1
  27   13   38 1
  28   14   23 ar
  29   14   39 1
  30   15   16 1
  31   15   40 1
  32   15   41 1
  33   16   17 1
  34   16   42 1
  35   16   43 1
  36   17   18 1
  37   18   19 1
  38   18   44 1
  39   18   45 1
  40   19   46 1
  41   19   47 1
  42   20   21 ar
  43   20   48 1
  44   21   22 ar
  45   21   49 1
  46   22   23 ar
  47   22   50 1
  48   23   24 1
  49   24   25 1
  50   25   26 1
  51   25   27 1
  52   25   28 1

#	End of record

