#	Name: ASD07930765
#	Creating user name:	WinNT
#	Creation time:	15. 06. 2019 21:13

#	Modifying user name:	WinNT
#	Modification time:	15. 06. 2019 21:13

#	Program:	/corina/corina34_cracker 3.40 0067  02.08.2006

@<TRIPOS>MOLECULE
ASD07930765
  50   53    0    0    0
SMALL
NO_CHARGES


@<TRIPOS>ATOM
   1 C1             1.8976    -1.4631     2.8291 C.3     
   2 N2            -0.7101    -0.2159     2.0840 N.2     
   3 N3            -1.1417    -2.2829     1.0827 N.pl3   
   4 C4            -0.9005    -2.8248    -0.2586 C.3     
   5 C5             0.4790    -3.4971    -0.2922 C.3     
   6 S6             1.7240    -2.2721     0.2214 S.o2    
   7 N7             1.0783    -1.6615     1.6310 N.am    
   8 C8            -0.2740    -1.3508     1.6140 C.2     
   9 C9            -0.9405    -1.6893    -1.2833 C.3     
  10 O10            2.9253    -2.9136     0.6270 O.2     
  11 O11            1.7424    -1.1669    -0.6715 O.2     
  12 C12           -1.9634    -3.8404    -0.5898 C.ar    
  13 C13           -2.1042    -4.9750     0.1937 C.ar    
  14 F14           -1.2872    -5.1675     1.2524 F       
  15 C15           -2.7981    -3.6365    -1.6684 C.ar    
  16 C16           -3.7825    -4.5778    -1.9738 C.ar    
  17 C17           -3.9164    -5.7210    -1.1848 C.ar    
  18 C18           -3.0800    -5.9123    -0.1046 C.ar    
  19 C19           -4.6806    -4.3641    -3.1289 C.2     
  20 N20           -5.6839    -5.2206    -3.5240 N.pl3   
  21 C21           -6.3205    -4.7119    -4.6348 C.ar    
  22 C22           -5.6986    -3.4900    -4.9546 C.ar    
  23 C23           -4.6466    -3.2920    -3.9580 C.2     
  24 C24           -7.3768    -5.1648    -5.4178 C.ar    
  25 C25           -7.8028    -4.4133    -6.4971 C.ar    
  26 C26           -7.1829    -3.2052    -6.8078 C.ar    
  27 C27           -6.1445    -2.7448    -6.0504 C.ar    
  28 O28           -8.8351    -4.8573    -7.2619 O.3     
  29 C29           -9.2276    -4.0349    -8.3626 C.3     
  30 H30            2.3243    -0.4602     2.8154 H       
  31 H31            1.2772    -1.5820     3.7173 H       
  32 H32            2.7011    -2.1995     2.8458 H       
  33 H33           -0.0858     0.4279     2.4536 H       
  34 H34           -1.9122    -2.5763     1.5938 H       
  35 H35            0.4919    -4.3439     0.3938 H       
  36 H36            0.6963    -3.8397    -1.3039 H       
  37 H37           -0.1700    -0.9564    -1.0438 H       
  38 H38           -0.7612    -2.0926    -2.2799 H       
  39 H39           -1.9190    -1.2097    -1.2561 H       
  40 H40           -2.6905    -2.7498    -2.2757 H       
  41 H41           -4.6765    -6.4524    -1.4167 H       
  42 H42           -3.1825    -6.7969     0.5064 H       
  43 H43           -5.9082    -6.0567    -3.0864 H       
  44 H44           -3.9672    -2.4546    -3.8982 H       
  45 H45           -7.8624    -6.1006    -5.1836 H       
  46 H46           -7.5260    -2.6287    -7.6542 H       
  47 H47           -5.6688    -1.8070    -6.2970 H       
  48 H48          -10.0595    -4.5038    -8.8881 H       
  49 H49           -9.5362    -3.0568    -7.9934 H       
  50 H50           -8.3866    -3.9166    -9.0458 H       
@<TRIPOS>BOND
   1    1    7 1
   2    1   30 1
   3    1   31 1
   4    1   32 1
   5    2    8 2
   6    2   33 1
   7    3    4 1
   8    3    8 1
   9    3   34 1
  10    4    5 1
  11    4    9 1
  12    4   12 1
  13    5    6 1
  14    5   35 1
  15    5   36 1
  16    6    7 am
  17    6   10 2
  18    6   11 2
  19    7    8 1
  20    9   37 1
  21    9   38 1
  22    9   39 1
  23   12   15 ar
  24   12   13 ar
  25   13   14 1
  26   13   18 ar
  27   15   16 ar
  28   15   40 1
  29   16   17 ar
  30   16   19 1
  31   17   18 ar
  32   17   41 1
  33   18   42 1
  34   19   20 1
  35   19   23 2
  36   20   21 1
  37   20   43 1
  38   21   22 ar
  39   21   24 ar
  40   22   23 1
  41   22   27 ar
  42   23   44 1
  43   24   25 ar
  44   24   45 1
  45   25   26 ar
  46   25   28 1
  47   26   27 ar
  48   26   46 1
  49   27   47 1
  50   28   29 1
  51   29   48 1
  52   29   49 1
  53   29   50 1

#	End of record

