#	Name: ASD06610098
#	Creating user name:	WinNT
#	Creation time:	15. 06. 2019 21:07

#	Modifying user name:	WinNT
#	Modification time:	15. 06. 2019 21:07

#	Program:	/corina/corina34_cracker 3.40 0067  02.08.2006

@<TRIPOS>MOLECULE
ASD06610098
 253  252    0    0    0
SMALL
NO_CHARGES


@<TRIPOS>ATOM
   1 C1            -0.6185    -2.2365    -0.5388 C.2     
   2 O2            -0.7281    -3.4437    -0.5003 O.2     
   3 N3             1.7712    -2.6546    -0.5965 N.am    
   4 C4             0.7487    -1.6054    -0.5972 C.3     
   5 C5             0.8723    -0.7737    -1.8755 C.3     
   6 C6             2.2115    -0.0337    -1.8750 C.3     
   7 C7             2.3332     0.7855    -3.1340 C.2     
   8 O8             1.4405     0.7782    -3.9481 O.2     
   9 O9             3.4334     1.5232    -3.3509 O.3     
  10 C10           -4.1010    -0.9940    -0.4903 C.2     
  11 O11           -3.7727     0.1727    -0.5330 O.2     
  12 N12           -1.7197    -1.4594    -0.5348 N.am    
  13 C13           -3.0491    -2.0731    -0.4841 C.3     
  14 C14           -7.6868    -0.7972     0.1925 C.2     
  15 O15           -7.7250    -1.9326     0.6170 O.2     
  16 N16           -5.4067    -1.3256    -0.4485 N.am    
  17 C17           -6.4294    -0.2766    -0.4546 C.3     
  18 C18           -6.7306     0.1337    -1.8975 C.3     
  19 C19           -5.4872     0.7770    -2.5149 C.3     
  20 C20           -5.7473     1.0737    -3.9932 C.3     
  21 C21           -5.1701     2.0815    -1.7810 C.3     
  22 C22          -11.1790     0.2615     0.4091 C.2     
  23 O23          -11.0199     1.1450    -0.4064 O.2     
  24 N24           -8.7690    -0.0010     0.2996 N.am    
  25 C25           -9.9914    -0.5071     0.9287 C.3     
  26 C26           -9.8945    -0.3319     2.4455 C.3     
  27 C27           -8.7659    -1.2103     2.9893 C.3     
  28 C28           -8.6690    -1.0352     4.5061 C.3     
  29 N29           -7.5884    -1.8763     5.0268 N.pl3   
  30 C30           -7.3118    -1.8847     6.3734 C.2     
  31 N31           -8.0111    -1.1444     7.1870 N.2     
  32 N32           -6.2977    -2.6740     6.8620 N.pl3   
  33 C33          -14.6855     0.6652     1.3603 C.2     
  34 O34          -14.5298     0.0651     2.4027 O.2     
  35 N35          -12.4179    -0.0329     0.8507 N.am    
  36 C36          -13.5724     0.7142     0.3456 C.3     
  37 C37          -14.0503     0.0888    -0.9664 C.3     
  38 C38          -12.9655     0.2502    -2.0332 C.3     
  39 C39          -13.4435    -0.3752    -3.3452 C.3     
  40 C40          -12.3587    -0.2139    -4.4120 C.3     
  41 N41          -12.8176    -0.8144    -5.6717 N.3     
  42 C42          -18.2588     1.4352     1.4004 C.2     
  43 O43          -18.2941     1.5980     0.1990 O.2     
  44 N44          -15.8540     1.2880     1.1094 N.am    
  45 C45          -16.9361     1.2403     2.0958 C.3     
  46 C46          -16.7343     2.3511     3.1284 C.3     
  47 C47          -15.4526     2.0845     3.9203 C.3     
  48 C48          -15.2508     3.1954     4.9529 C.3     
  49 N49          -14.0235     2.9401     5.7112 N.pl3   
  50 C50          -13.6337     3.8105     6.7014 C.2     
  51 N51          -12.5419     3.5834     7.3761 N.2     
  52 N52          -14.3956     4.9205     6.9800 N.pl3   
  53 C53          -21.6925     2.1733     2.4143 C.2     
  54 O54          -21.3663     2.3893     3.5623 O.2     
  55 N55          -19.4025     1.4287     2.1134 N.am    
  56 C56          -20.6882     1.6182     1.4373 C.3     
  57 C57          -21.1862     0.2740     0.9025 C.3     
  58 C58          -20.2299    -0.2299    -0.1803 C.3     
  59 C59          -20.7279    -1.5741    -0.7152 C.3     
  60 N60          -19.8122    -2.0566    -1.7520 N.pl3   
  61 C61          -20.0567    -3.2539    -2.3820 C.2     
  62 N62          -21.1032    -3.9597    -2.0569 N.2     
  63 N63          -19.1974    -3.7067    -3.3551 N.pl3   
  64 C64          -25.3211     2.6050     2.5133 C.2     
  65 O65          -25.4817     1.9583     1.4999 O.2     
  66 N66          -22.9531     2.4296     2.0123 N.am    
  67 C67          -23.9294     2.9692     2.9621 C.3     
  68 C68          -23.7949     4.4921     3.0217 C.3     
  69 C69          -22.4254     4.8611     3.5954 C.3     
  70 C70          -22.2910     6.3840     3.6551 C.3     
  71 N71          -20.9796     6.7374     4.2044 N.pl3   
  72 C72          -20.6302     8.0586     4.3535 C.2     
  73 N73          -21.4655     8.9969     4.0062 N.2     
  74 N74          -19.3996     8.3902     4.8691 N.pl3   
  75 C75          -28.7238     3.6431     3.3540 C.2     
  76 O76          -28.3331     4.5608     4.0440 O.2     
  77 N77          -26.3873     2.9978     3.2381 N.am    
  78 C78          -27.7403     2.6437     2.8018 C.3     
  79 C79          -28.0918     1.2456     3.3142 C.3     
  80 C80          -27.1718     0.2151     2.6565 C.3     
  81 C81          -27.4384    -1.1653     3.2600 C.3     
  82 C82          -27.4444     0.1750     1.1515 C.3     
  83 C83          -32.3364     3.7226     3.8311 C.2     
  84 O84          -32.6047     2.7948     3.0976 O.2     
  85 N85          -30.0376     3.5171     3.0810 N.am    
  86 C86          -31.0060     4.4198     3.7084 C.3     
  87 C87          -31.1653     5.6747     2.8478 C.3     
  88 C88          -32.0449     6.6885     3.5823 C.3     
  89 C89          -31.3248     7.1689     4.8439 C.3     
  90 C90          -32.3205     7.8827     2.6663 C.3     
  91 C91          -35.5292     4.4848     5.4398 C.2     
  92 O92          -35.1487     5.5714     5.8062 O.2     
  93 N93          -33.2280     4.1301     4.7560 N.am    
  94 C94          -34.5585     3.5194     4.8099 C.3     
  95 C95          -34.4985     2.2388     5.6449 C.3     
  96 O96          -36.8166     4.1375     5.5938 O.3     
  97 C97            3.0129    -2.3851    -0.1471 C.2     
  98 O98            3.2838    -1.2740     0.2568 O.2     
  99 C99           20.7046    -7.1845     3.7462 C.3     
 100 C100          19.6368    -6.0888     3.7455 C.3     
 101 C101          18.3275    -6.6531     3.1902 C.3     
 102 C102          17.2596    -5.5574     3.1894 C.3     
 103 C103          15.9504    -6.1216     2.6341 C.3     
 104 C104          14.8825    -5.0259     2.6333 C.3     
 105 C105          13.5733    -5.5902     2.0780 C.3     
 106 C106          12.5054    -4.4945     2.0772 C.3     
 107 C107          11.1961    -5.0587     1.5219 C.3     
 108 C108          10.1283    -3.9630     1.5212 C.3     
 109 C109           8.8190    -4.5272     0.9658 C.3     
 110 C110           7.7511    -3.4315     0.9651 C.3     
 111 C111           6.4419    -3.9958     0.4098 C.3     
 112 C112           5.3740    -2.9001     0.4090 C.3     
 113 C113           4.0648    -3.4643    -0.1463 C.3     
 114 H114           1.5546    -3.5432    -0.9195 H       
 115 H115           0.8889    -0.9609     0.2706 H       
 116 H116           0.8209    -1.4313    -2.7432 H       
 117 H117           0.0577    -0.0507    -1.9187 H       
 118 H118           2.2629     0.6239    -1.0072 H       
 119 H119           3.0261    -0.7567    -1.8317 H       
 120 H120           3.4659     2.0319    -4.1727 H       
 121 H121          -1.6321    -0.4939    -0.5656 H       
 122 H122          -3.1414    -2.6652     0.4264 H       
 123 H123          -3.1849    -2.7180    -1.3523 H       
 124 H124          -5.6693    -2.2587    -0.4144 H       
 125 H125          -6.0661     0.5882     0.1007 H       
 126 H126          -7.0086    -0.7477    -2.4753 H       
 127 H127          -7.5529     0.8491    -1.9077 H       
 128 H128          -4.6421     0.0945    -2.4245 H       
 129 H129          -6.5923     1.7562    -4.0836 H       
 130 H130          -4.8615     1.5320    -4.4330 H       
 131 H131          -5.9732     0.1444    -4.5160 H       
 132 H132          -6.0152     2.7639    -1.8714 H       
 133 H133          -4.9848     1.8700    -0.7278 H       
 134 H134          -4.2843     2.5397    -2.2209 H       
 135 H135          -8.7384     0.9072    -0.0399 H       
 136 H136         -10.1110    -1.5643     0.6919 H       
 137 H137          -9.6863     0.7124     2.6781 H       
 138 H138         -10.8377    -0.6257     2.9062 H       
 139 H139          -8.9741    -2.2547     2.7567 H       
 140 H140          -7.8227    -0.9165     2.5286 H       
 141 H141          -8.4608     0.0091     4.7387 H       
 142 H142          -9.6122    -1.3290     4.9668 H       
 143 H143          -7.0680    -2.4272     4.4213 H       
 144 H144          -7.8160    -1.1503     8.1372 H       
 145 H145          -5.7773    -3.2250     6.2566 H       
 146 H146          -6.1026    -2.6799     7.8122 H       
 147 H147         -12.5451    -0.7396     1.5029 H       
 148 H148         -13.2857     1.7512     0.1706 H       
 149 H149         -14.2525    -0.9710    -0.8112 H       
 150 H150         -14.9614     0.5881    -1.2962 H       
 151 H151         -12.7633     1.3100    -2.1884 H       
 152 H152         -12.0545    -0.2491    -1.7034 H       
 153 H153         -13.6457    -1.4350    -3.1900 H       
 154 H154         -14.3546     0.1240    -3.6750 H       
 155 H155         -12.1565     0.8459    -4.5672 H       
 156 H156         -11.4476    -0.7131    -4.0822 H       
 157 H157         -13.6955    -0.4127    -5.9651 H       
 158 H158         -12.1182    -0.7207    -6.3929 H       
 159 H159         -15.9786     1.7679     0.2757 H       
 160 H160         -16.9284     0.2725     2.5971 H       
 161 H161         -16.6532     3.3110     2.6183 H       
 162 H162         -17.5847     2.3726     3.8099 H       
 163 H163         -15.5337     1.1247     4.4304 H       
 164 H164         -14.6022     2.0631     3.2388 H       
 165 H165         -15.1697     4.1552     4.4429 H       
 166 H166         -16.1012     3.2168     5.6345 H       
 167 H167         -13.4860     2.1569     5.5147 H       
 168 H168         -12.2668     4.1975     8.0748 H       
 169 H169         -15.2082     5.0895     6.4780 H       
 170 H170         -14.1206     5.5346     7.6787 H       
 171 H171         -19.3742     1.2985     3.0742 H       
 172 H172         -20.5638     2.3153     0.6087 H       
 173 H173         -21.2259    -0.4490     1.7172 H       
 174 H174         -22.1825     0.3983     0.4782 H       
 175 H175         -20.1902     0.4931    -0.9951 H       
 176 H176         -19.2336    -0.3543     0.2440 H       
 177 H177         -20.7676    -2.2971     0.0996 H       
 178 H178         -21.7242    -1.4498    -1.1395 H       
 179 H179         -19.0335    -1.5314    -1.9940 H       
 180 H180         -21.2756    -4.8044    -2.5014 H       
 181 H181         -18.4187    -3.1814    -3.5970 H       
 182 H182         -19.3699    -4.5514    -3.7996 H       
 183 H183         -23.2140     2.2568     1.0942 H       
 184 H184         -23.7448     2.5492     3.9508 H       
 185 H185         -23.8914     4.9050     2.0175 H       
 186 H186         -24.5783     4.9013     3.6596 H       
 187 H187         -22.3289     4.4483     4.5996 H       
 188 H188         -21.6420     4.4519     2.9575 H       
 189 H189         -22.3875     6.7969     2.6509 H       
 190 H190         -23.0744     6.7932     4.2930 H       
 191 H191         -20.3580     6.0391     4.4629 H       
 192 H192         -21.2190     9.9292     4.1114 H       
 193 H193         -18.7779     7.6920     5.1276 H       
 194 H194         -19.1530     9.3225     4.9743 H       
 195 H195         -26.2589     3.5150     4.0486 H       
 196 H196         -27.7851     2.6535     1.7127 H       
 197 H197         -27.9611     1.2115     4.3957 H       
 198 H198         -29.1285     1.0178     3.0661 H       
 199 H199         -26.1322     0.4930     2.8301 H       
 200 H200         -28.4779    -1.4432     3.0863 H       
 201 H201         -26.7829    -1.8994     2.7914 H       
 202 H202         -27.2442    -1.1368     4.3322 H       
 203 H203         -28.4840    -0.1028     0.9778 H       
 204 H204         -27.2545     1.1585     0.7215 H       
 205 H205         -26.7889    -0.5591     0.6829 H       
 206 H206         -30.3420     2.8287     2.4691 H       
 207 H207         -30.6507     4.7017     4.6996 H       
 208 H208         -30.1853     6.1131     2.6596 H       
 209 H209         -31.6323     5.4082     1.8996 H       
 210 H210         -32.9882     6.2178     3.8593 H       
 211 H211         -31.9758     7.8446     5.3987 H       
 212 H212         -31.0745     6.3113     5.4682 H       
 213 H213         -30.4113     7.6932     4.5634 H       
 214 H214         -32.8335     7.5404     1.7675 H       
 215 H215         -32.9471     8.6049     3.1896 H       
 216 H216         -31.3772     8.3534     2.3893 H       
 217 H217         -32.9887     4.8278     5.3860 H       
 218 H218         -34.8892     3.2791     3.7994 H       
 219 H219         -34.1678     2.4791     6.6554 H       
 220 H220         -35.4884     1.7844     5.6850 H       
 221 H221         -33.7964     1.5405     5.1893 H       
 222 H222         -37.4014     4.7899     6.0030 H       
 223 H223          20.3731    -8.0146     4.3701 H       
 224 H224          20.8642    -7.5371     2.7272 H       
 225 H225          21.6374    -6.7826     4.1419 H       
 226 H226          19.4772    -5.7363     4.7645 H       
 227 H227          19.9683    -5.2588     3.1216 H       
 228 H228          18.4871    -7.0056     2.1712 H       
 229 H229          17.9960    -7.4831     3.8141 H       
 230 H230          17.1001    -5.2048     4.2084 H       
 231 H231          17.5912    -4.7274     2.5655 H       
 232 H232          16.1099    -6.4742     1.6151 H       
 233 H233          15.6189    -6.9516     3.2580 H       
 234 H234          14.7230    -4.6734     3.6523 H       
 235 H235          15.2140    -4.1959     2.0094 H       
 236 H236          13.7328    -5.9427     1.0590 H       
 237 H237          13.2417    -6.4202     2.7019 H       
 238 H238          12.3458    -4.1419     3.0962 H       
 239 H239          12.8369    -3.6644     1.4533 H       
 240 H240          11.3557    -5.4112     0.5029 H       
 241 H241          10.8646    -5.8887     2.1458 H       
 242 H242           9.9687    -3.6104     2.5402 H       
 243 H243          10.4598    -3.1330     0.8973 H       
 244 H244           8.9786    -4.8798    -0.0532 H       
 245 H245           8.4875    -5.3572     1.5898 H       
 246 H246           7.5916    -3.0790     1.9841 H       
 247 H247           8.0827    -2.6015     0.3412 H       
 248 H248           6.6014    -4.3483    -0.6092 H       
 249 H249           6.1104    -4.8258     1.0337 H       
 250 H250           5.2145    -2.5475     1.4280 H       
 251 H251           5.7055    -2.0700    -0.2149 H       
 252 H252           3.7332    -4.2943     0.4776 H       
 253 H253           4.2243    -3.8168    -1.1653 H       
@<TRIPOS>BOND
   1    1    2 2
   2    1    4 1
   3    1   12 am
   4    3   97 am
   5    3    4 1
   6    3  114 1
   7    4    5 1
   8    4  115 1
   9    5    6 1
  10    5  116 1
  11    5  117 1
  12    6    7 1
  13    6  118 1
  14    6  119 1
  15    7    8 2
  16    7    9 1
  17    9  120 1
  18   10   11 2
  19   10   13 1
  20   10   16 am
  21   12   13 1
  22   12  121 1
  23   13  122 1
  24   13  123 1
  25   14   15 2
  26   14   17 1
  27   14   24 am
  28   16   17 1
  29   16  124 1
  30   17   18 1
  31   17  125 1
  32   18   19 1
  33   18  126 1
  34   18  127 1
  35   19   20 1
  36   19   21 1
  37   19  128 1
  38   20  129 1
  39   20  130 1
  40   20  131 1
  41   21  132 1
  42   21  133 1
  43   21  134 1
  44   22   23 2
  45   22   25 1
  46   22   35 am
  47   24   25 1
  48   24  135 1
  49   25   26 1
  50   25  136 1
  51   26   27 1
  52   26  137 1
  53   26  138 1
  54   27   28 1
  55   27  139 1
  56   27  140 1
  57   28   29 1
  58   28  141 1
  59   28  142 1
  60   29   30 1
  61   29  143 1
  62   30   31 2
  63   30   32 1
  64   31  144 1
  65   32  145 1
  66   32  146 1
  67   33   34 2
  68   33   36 1
  69   33   44 am
  70   35   36 1
  71   35  147 1
  72   36   37 1
  73   36  148 1
  74   37   38 1
  75   37  149 1
  76   37  150 1
  77   38   39 1
  78   38  151 1
  79   38  152 1
  80   39   40 1
  81   39  153 1
  82   39  154 1
  83   40   41 1
  84   40  155 1
  85   40  156 1
  86   41  157 1
  87   41  158 1
  88   42   43 2
  89   42   45 1
  90   42   55 am
  91   44   45 1
  92   44  159 1
  93   45   46 1
  94   45  160 1
  95   46   47 1
  96   46  161 1
  97   46  162 1
  98   47   48 1
  99   47  163 1
 100   47  164 1
 101   48   49 1
 102   48  165 1
 103   48  166 1
 104   49   50 1
 105   49  167 1
 106   50   51 2
 107   50   52 1
 108   51  168 1
 109   52  169 1
 110   52  170 1
 111   53   54 2
 112   53   56 1
 113   53   66 am
 114   55   56 1
 115   55  171 1
 116   56   57 1
 117   56  172 1
 118   57   58 1
 119   57  173 1
 120   57  174 1
 121   58   59 1
 122   58  175 1
 123   58  176 1
 124   59   60 1
 125   59  177 1
 126   59  178 1
 127   60   61 1
 128   60  179 1
 129   61   62 2
 130   61   63 1
 131   62  180 1
 132   63  181 1
 133   63  182 1
 134   64   65 2
 135   64   67 1
 136   64   77 am
 137   66   67 1
 138   66  183 1
 139   67   68 1
 140   67  184 1
 141   68   69 1
 142   68  185 1
 143   68  186 1
 144   69   70 1
 145   69  187 1
 146   69  188 1
 147   70   71 1
 148   70  189 1
 149   70  190 1
 150   71   72 1
 151   71  191 1
 152   72   73 2
 153   72   74 1
 154   73  192 1
 155   74  193 1
 156   74  194 1
 157   75   76 2
 158   75   78 1
 159   75   85 am
 160   77   78 1
 161   77  195 1
 162   78   79 1
 163   78  196 1
 164   79   80 1
 165   79  197 1
 166   79  198 1
 167   80   81 1
 168   80   82 1
 169   80  199 1
 170   81  200 1
 171   81  201 1
 172   81  202 1
 173   82  203 1
 174   82  204 1
 175   82  205 1
 176   83   84 2
 177   83   86 1
 178   83   93 am
 179   85   86 1
 180   85  206 1
 181   86   87 1
 182   86  207 1
 183   87   88 1
 184   87  208 1
 185   87  209 1
 186   88   89 1
 187   88   90 1
 188   88  210 1
 189   89  211 1
 190   89  212 1
 191   89  213 1
 192   90  214 1
 193   90  215 1
 194   90  216 1
 195   91   92 2
 196   91   94 1
 197   91   96 1
 198   93   94 1
 199   93  217 1
 200   94   95 1
 201   94  218 1
 202   95  219 1
 203   95  220 1
 204   95  221 1
 205   96  222 1
 206   97   98 2
 207   97  113 1
 208   99  100 1
 209   99  223 1
 210   99  224 1
 211   99  225 1
 212  100  101 1
 213  100  226 1
 214  100  227 1
 215  101  102 1
 216  101  228 1
 217  101  229 1
 218  102  103 1
 219  102  230 1
 220  102  231 1
 221  103  104 1
 222  103  232 1
 223  103  233 1
 224  104  105 1
 225  104  234 1
 226  104  235 1
 227  105  106 1
 228  105  236 1
 229  105  237 1
 230  106  107 1
 231  106  238 1
 232  106  239 1
 233  107  108 1
 234  107  240 1
 235  107  241 1
 236  108  109 1
 237  108  242 1
 238  108  243 1
 239  109  110 1
 240  109  244 1
 241  109  245 1
 242  110  111 1
 243  110  246 1
 244  110  247 1
 245  111  112 1
 246  111  248 1
 247  111  249 1
 248  112  113 1
 249  112  250 1
 250  112  251 1
 251  113  252 1
 252  113  253 1

#	End of record

