#	Name: ASD01912257
#	Creating user name:	WinNT
#	Creation time:	15. 06. 2019 19:59

#	Modifying user name:	WinNT
#	Modification time:	15. 06. 2019 19:59

#	Program:	/corina/corina34_cracker 3.40 0067  02.08.2006

@<TRIPOS>MOLECULE
ASD01912257
  44   46    0    0    0
SMALL
NO_CHARGES


@<TRIPOS>ATOM
   1 C1            -0.0517     1.3185     0.0227 C.ar    
   2 C2             0.3831     0.6761    -1.1323 C.ar    
   3 C3             1.6333     0.0848    -1.1429 C.ar    
   4 C4             2.4100     0.1560     0.0063 C.ar    
   5 C5             1.9157     0.8096     1.1169 C.ar    
   6 N6             0.7186     1.3648     1.0985 N.ar    
   7 C7            -0.4964     0.6247    -2.3549 C.3     
   8 F8             0.1735    -0.0465    -3.3835 F       
   9 F9            -1.6809    -0.0540    -2.0492 F       
  10 F10           -0.7983     1.9271    -2.7672 F       
  11 N11           -1.3036     1.9221     0.0454 N.3     
  12 C12           -1.1843     3.3748     0.2221 C.3     
  13 C13           -2.5527     4.0290    -0.0005 C.3     
  14 C14           -3.5561     3.3501     0.9081 C.2     
  15 C15           -3.5933     1.8362     0.9122 C.3     
  16 C16           -2.1587     1.3214     1.0769 C.3     
  17 C17           -4.3785     4.0610     1.6784 C.2     
  18 C18           -5.3183     3.3943     2.5287 C.1     
  19 C19           -6.0887     2.8478     3.2258 C.1     
  20 C20           -7.0285     2.1811     4.0762 C.ar    
  21 C21           -7.8891     2.9318     4.8824 C.ar    
  22 C22           -8.7905     2.2725     5.6977 C.ar    
  23 C23           -8.8057     0.8839     5.6835 C.ar    
  24 C24           -7.9265     0.2027     4.8616 C.ar    
  25 N25           -7.0801     0.8523     4.0893 N.ar    
  26 C26           -7.9414    -1.3041     4.8447 C.3     
  27 H27            1.9973    -0.4212    -2.0249 H       
  28 H28            3.3906    -0.2958     0.0307 H       
  29 H29            2.5163     0.8673     2.0126 H       
  30 H30           -0.8382     3.5909     1.2329 H       
  31 H31           -0.4700     3.7714    -0.4995 H       
  32 H32           -2.4966     5.0902     0.2417 H       
  33 H33           -2.8550     3.9041    -1.0403 H       
  34 H34           -4.2071     1.4858     1.7420 H       
  35 H35           -4.0072     1.4761    -0.0296 H       
  36 H36           -2.1475     0.2365     0.9719 H       
  37 H37           -1.7852     1.5953     2.0635 H       
  38 H38           -4.3364     5.1400     1.6615 H       
  39 H39           -7.8502     4.0110     4.8691 H       
  40 H40           -9.4677     2.8253     6.3318 H       
  41 H41           -9.4981     0.3405     6.3094 H       
  42 H42           -8.6404    -1.6521     4.0841 H       
  43 H43           -6.9421    -1.6748     4.6166 H       
  44 H44           -8.2525    -1.6754     5.8212 H       
@<TRIPOS>BOND
   1    1    2 ar
   2    1    6 ar
   3    1   11 1
   4    2    3 ar
   5    2    7 1
   6    3    4 ar
   7    3   27 1
   8    4    5 ar
   9    4   28 1
  10    5    6 ar
  11    5   29 1
  12    7    8 1
  13    7    9 1
  14    7   10 1
  15   11   12 1
  16   11   16 1
  17   12   13 1
  18   12   30 1
  19   12   31 1
  20   13   14 1
  21   13   32 1
  22   13   33 1
  23   14   15 1
  24   14   17 2
  25   15   16 1
  26   15   34 1
  27   15   35 1
  28   16   36 1
  29   16   37 1
  30   17   18 1
  31   17   38 1
  32   18   19 3
  33   19   20 1
  34   20   21 ar
  35   20   25 ar
  36   21   22 ar
  37   21   39 1
  38   22   23 ar
  39   22   40 1
  40   23   24 ar
  41   23   41 1
  42   24   25 ar
  43   24   26 1
  44   26   42 1
  45   26   43 1
  46   26   44 1

#	End of record

