#	Name: ASD01885021
#	Creating user name:	WinNT
#	Creation time:	15. 06. 2019 19:49

#	Modifying user name:	WinNT
#	Modification time:	15. 06. 2019 19:49

#	Program:	/corina/corina34_cracker 3.40 0067  02.08.2006

@<TRIPOS>MOLECULE
ASD01885021
  50   53    0    0    0
SMALL
NO_CHARGES


@<TRIPOS>ATOM
   1 C1            -0.4406     1.2695     0.2472 C.3     
   2 C2            -0.1584    -0.2329     0.1824 C.3     
   3 H3            -1.0921    -0.7836     0.2965 H       
   4 C4             0.4741    -0.5752    -1.1654 C.3     
   5 N5             1.0421    -1.9186    -1.1938 N.am    
   6 C6             1.7247    -2.4212    -0.1366 C.2     
   7 O7             2.3662    -3.4515    -0.2179 O.2     
   8 C8             1.6475    -1.6519     1.1145 C.2     
   9 C9             2.3371    -1.7609     2.2892 C.2     
  10 C10            3.4076    -2.7637     2.6348 C.3     
  11 C11            4.7614    -2.2581     2.1322 C.3     
  12 C12            5.8319    -3.2609     2.4778 C.ar    
  13 C13            6.5076    -3.1764     3.6877 C.ar    
  14 C14            7.4829    -4.1171     3.9663 C.ar    
  15 C15            7.7522    -5.1100     3.0302 C.ar    
  16 N16            8.7297    -6.0616     3.2971 N.pl3   
  17 N17            7.0853    -5.1572     1.8871 N.ar    
  18 C18            6.1468    -4.2763     1.5968 C.ar    
  19 C19            1.8326    -0.7372     3.1025 C.2     
  20 N20            0.9119    -0.0957     2.4213 N.2     
  21 N21            0.7648    -0.6049     1.2613 N.pl3   
  22 C22            0.8782    -2.7058    -2.3379 C.ar    
  23 C23            0.0869    -3.8463    -2.2904 C.ar    
  24 C24           -0.0734    -4.6213    -3.4223 C.ar    
  25 C25            0.5529    -4.2628    -4.6019 C.ar    
  26 C26            1.3414    -3.1279    -4.6525 C.ar    
  27 C27            1.5016    -2.3457    -3.5257 C.ar    
  28 C28            0.3762    -5.1112    -5.8349 C.3     
  29 F29           -0.7321    -4.6575    -6.5581 F       
  30 F30            1.5223    -5.0200    -6.6319 F       
  31 F31            0.1742    -6.4436    -5.4592 F       
  32 H32            0.4933     1.8199     0.1331 H       
  33 H33           -1.1253     1.5455    -0.5547 H       
  34 H34           -0.8909     1.5134     1.2095 H       
  35 H35           -0.2875    -0.4983    -1.9415 H       
  36 H36            1.2638     0.1457    -1.3771 H       
  37 H37            3.4474    -2.8946     3.7162 H       
  38 H38            3.1777    -3.7183     2.1614 H       
  39 H39            4.7216    -2.1272     1.0508 H       
  40 H40            4.9913    -1.3036     2.6055 H       
  41 H41            6.2772    -2.3938     4.3953 H       
  42 H42            8.0282    -4.0808     4.8979 H       
  43 H43            9.2205    -6.0314     4.1332 H       
  44 H44            8.9209    -6.7560     2.6473 H       
  45 H45            5.6208    -4.3482     0.6563 H       
  46 H46            2.1459    -0.5154     4.1120 H       
  47 H47           -0.4022    -4.1270    -1.3694 H       
  48 H48           -0.6883    -5.5084    -3.3859 H       
  49 H49            1.8295    -2.8510    -5.5753 H       
  50 H50            2.1139    -1.4570    -3.5670 H       
@<TRIPOS>BOND
   1    1    2 1
   2    1   32 1
   3    1   33 1
   4    1   34 1
   5    2    3 1
   6    2   21 1
   7    2    4 1
   8    4    5 1
   9    4   35 1
  10    4   36 1
  11    5    6 am
  12    5   22 1
  13    6    7 2
  14    6    8 1
  15    8   21 1
  16    8    9 2
  17    9   10 1
  18    9   19 1
  19   10   11 1
  20   10   37 1
  21   10   38 1
  22   11   12 1
  23   11   39 1
  24   11   40 1
  25   12   18 ar
  26   12   13 ar
  27   13   14 ar
  28   13   41 1
  29   14   15 ar
  30   14   42 1
  31   15   16 1
  32   15   17 ar
  33   16   43 1
  34   16   44 1
  35   17   18 ar
  36   18   45 1
  37   19   20 2
  38   19   46 1
  39   20   21 1
  40   22   27 ar
  41   22   23 ar
  42   23   24 ar
  43   23   47 1
  44   24   25 ar
  45   24   48 1
  46   25   26 ar
  47   25   28 1
  48   26   27 ar
  49   26   49 1
  50   27   50 1
  51   28   29 1
  52   28   30 1
  53   28   31 1

#	End of record

