#	Name: ASD02508101
#	Creating user name:	WinNT
#	Creation time:	15. 06. 2019 20:23

#	Modifying user name:	WinNT
#	Modification time:	15. 06. 2019 20:23

#	Program:	/corina/corina34_cracker 3.40 0067  02.08.2006

@<TRIPOS>MOLECULE
ASD02508101
  40   42    0    0    0
SMALL
NO_CHARGES


@<TRIPOS>ATOM
   1 C1             3.8117    -0.8859    -4.1371 C.ar    
   2 C2             4.7662    -1.4998    -3.3420 C.ar    
   3 C3             2.7618    -0.1779    -3.5518 C.ar    
   4 C4             2.6760    -0.0897    -2.1719 C.ar    
   5 C5             3.6340    -0.7055    -1.3794 C.ar    
   6 C6             4.6779    -1.4106    -1.9666 C.ar    
   7 N7             3.6332    -0.7920    -5.5197 N.am    
   8 C8             2.5198    -0.0638    -5.7350 C.2     
   9 O9             1.9936     0.3080    -4.5575 O.3     
  10 N10            3.5489    -0.6168     0.0142 N.am    
  11 S11            3.7400    -1.9741     0.9435 S.o2    
  12 C12            2.4304    -3.0781     0.5298 C.ar    
  13 C13            1.1177    -2.7403     0.8266 C.ar    
  14 O14            2.0650     0.2170    -6.8272 O.2     
  15 O15            4.9411    -2.5944     0.5055 O.2     
  16 O16            3.5176    -1.5740     2.2887 O.2     
  17 C17            2.7092    -4.2778    -0.0952 C.ar    
  18 C18            1.6818    -5.1444    -0.4205 C.ar    
  19 C19            0.3736    -4.8126    -0.1211 C.ar    
  20 C20            0.0890    -3.6116     0.4997 C.ar    
  21 C21            4.4982    -1.3775    -6.5470 C.3     
  22 O22            0.8404    -1.5582     1.4369 O.3     
  23 C23           -0.5187    -1.3247     1.8117 C.3     
  24 C24            1.9888    -6.4525    -1.1029 C.3     
  25 H25            5.5780    -2.0477    -3.7973 H       
  26 H26            1.8653     0.4576    -1.7140 H       
  27 H27            5.4217    -1.8886    -1.3465 H       
  28 H28            3.3779     0.2397     0.4361 H       
  29 H29            3.7303    -4.5391    -0.3304 H       
  30 H30           -0.4270    -5.4910    -0.3765 H       
  31 H31           -0.9331    -3.3528     0.7335 H       
  32 H32            4.1486    -2.3815    -6.7873 H       
  33 H33            4.4681    -0.7581    -7.4434 H       
  34 H34            5.5214    -1.4284    -6.1747 H       
  35 H35           -1.1588    -1.4191     0.9346 H       
  36 H36           -0.8196    -2.0564     2.5615 H       
  37 H37           -0.6143    -0.3207     2.2250 H       
  38 H38            2.1572    -7.2237    -0.3512 H       
  39 H39            1.1481    -6.7387    -1.7349 H       
  40 H40            2.8831    -6.3414    -1.7161 H       
@<TRIPOS>BOND
   1    1    2 ar
   2    1    3 ar
   3    1    7 1
   4    2    6 ar
   5    2   25 1
   6    3    4 ar
   7    3    9 1
   8    4    5 ar
   9    4   26 1
  10    5    6 ar
  11    5   10 1
  12    6   27 1
  13    7    8 am
  14    7   21 1
  15    8    9 1
  16    8   14 2
  17   10   11 am
  18   10   28 1
  19   11   12 1
  20   11   15 2
  21   11   16 2
  22   12   13 ar
  23   12   17 ar
  24   13   22 1
  25   13   20 ar
  26   17   18 ar
  27   17   29 1
  28   18   19 ar
  29   18   24 1
  30   19   20 ar
  31   19   30 1
  32   20   31 1
  33   21   32 1
  34   21   33 1
  35   21   34 1
  36   22   23 1
  37   23   35 1
  38   23   36 1
  39   23   37 1
  40   24   38 1
  41   24   39 1
  42   24   40 1

#	End of record

