#	Name: ASD01882234
#	Creating user name:	WinNT
#	Creation time:	15. 06. 2019 19:44

#	Modifying user name:	WinNT
#	Modification time:	15. 06. 2019 19:44

#	Program:	/corina/corina34_cracker 3.40 0067  02.08.2006

@<TRIPOS>MOLECULE
ASD01882234
  40   42    0    0    0
SMALL
NO_CHARGES


@<TRIPOS>ATOM
   1 C1            -0.1998     1.6050    -0.0803 C.2     
   2 C2             0.0032     0.2117    -0.1045 C.2     
   3 C3            -1.0664    -0.6177     0.0306 C.2     
   4 C4            -2.3532    -0.0758     0.1917 C.2     
   5 C5            -2.5325     1.2616     0.2125 C.2     
   6 N6            -1.4699     2.1049     0.0721 N.pl3   
   7 C7            -0.8724    -2.1120     0.0071 C.3     
   8 O8            -1.4576    -2.6867     1.1773 O.3     
   9 C9             1.3892    -0.3538    -0.2786 C.3     
  10 C10           -0.9905    -3.9029     1.5675 C.ar    
  11 C11           -1.5450    -2.6941    -1.2378 C.3     
  12 N12            0.6116     2.6450    -0.1832 N.2     
  13 N13           -0.0714     3.7323    -0.0984 N.2     
  14 C14           -1.3413     3.4594     0.0565 C.2     
  15 C15           -2.4582     4.4621     0.1906 C.3     
  16 F16            1.4115    -1.1986    -1.3935 F       
  17 F17            2.2991     0.6919    -0.4675 F       
  18 F18            1.7435    -1.0796     0.8637 F       
  19 C19            0.0401    -4.5085     0.8652 C.ar    
  20 C20            0.5140    -5.7443     1.2625 C.ar    
  21 C21           -0.0397    -6.3791     2.3613 C.ar    
  22 C22           -1.0691    -5.7771     3.0645 C.ar    
  23 C23           -1.5414    -4.5371     2.6735 C.ar    
  24 F24           -2.5420    -3.9464     3.3629 F       
  25 F25            0.4250    -7.5874     2.7476 F       
  26 C26           -2.6642     4.8016     1.6681 C.3     
  27 H27           -3.2032    -0.7334     0.2990 H       
  28 H28           -3.5257     1.6672     0.3365 H       
  29 H29            0.1933    -2.3397    -0.0156 H       
  30 H30           -1.0986    -2.2557    -2.1304 H       
  31 H31           -1.4047    -3.7749    -1.2548 H       
  32 H32           -2.6107    -2.4663    -1.2151 H       
  33 H33           -2.2009     5.3682    -0.3580 H       
  34 H34           -3.3767     4.0394    -0.2166 H       
  35 H35            0.4722    -4.0146     0.0074 H       
  36 H36            1.3168    -6.2156     0.7150 H       
  37 H37           -1.5005    -6.2737     3.9211 H       
  38 H38           -2.9215     3.8955     2.2167 H       
  39 H39           -1.7456     5.2243     2.0753 H       
  40 H40           -3.4720     5.5269     1.7651 H       
@<TRIPOS>BOND
   1    1    2 1
   2    1   12 2
   3    1    6 1
   4    2    9 1
   5    2    3 2
   6    3    4 1
   7    3    7 1
   8    4    5 2
   9    4   27 1
  10    5    6 1
  11    5   28 1
  12    6   14 1
  13    7    8 1
  14    7   11 1
  15    7   29 1
  16    8   10 1
  17    9   16 1
  18    9   17 1
  19    9   18 1
  20   10   19 ar
  21   10   23 ar
  22   11   30 1
  23   11   31 1
  24   11   32 1
  25   12   13 1
  26   13   14 2
  27   14   15 1
  28   15   26 1
  29   15   33 1
  30   15   34 1
  31   19   20 ar
  32   19   35 1
  33   20   21 ar
  34   20   36 1
  35   21   22 ar
  36   21   25 1
  37   22   23 ar
  38   22   37 1
  39   23   24 1
  40   26   38 1
  41   26   39 1
  42   26   40 1

#	End of record

