#	Name: ASD03720009
#	Creating user name:	WinNT
#	Creation time:	15. 06. 2019 20:43

#	Modifying user name:	WinNT
#	Modification time:	15. 06. 2019 20:43

#	Program:	/corina/corina34_cracker 3.40 0067  02.08.2006

@<TRIPOS>MOLECULE
ASD03720009
  65   68    0    0    0
SMALL
NO_CHARGES


@<TRIPOS>ATOM
   1 C1             0.3551     0.7586     0.7563 C.3     
   2 C2             0.5479    -0.7332     0.9293 C.2     
   3 C3             1.4568    -1.1954     2.0477 C.3     
   4 C4             2.8077    -0.4900     1.8975 C.3     
   5 C5             2.6162     1.0267     1.8242 C.3     
   6 C6             1.7393     1.4072     0.6368 C.3     
   7 C7             3.5194    -1.0156     0.6524 C.3     
   8 C8             4.8777    -0.3231     0.4924 C.3     
   9 C9             4.6295     1.1831     0.3756 C.3     
  10 C10            4.0070     1.6767     1.6794 C.3     
  11 C11            5.8485     1.9484    -0.0175 C.3     
  12 C12            6.3245     2.9388     1.0671 C.3     
  13 C13            5.2220     3.9125     1.3767 C.3     
  14 C14            3.9155     3.1883     1.7422 C.3     
  15 C15            7.1434     1.1719    -0.3009 C.3     
  16 C16            8.1638     2.3411    -0.4385 C.3     
  17 C17            7.5989     3.5066     0.4162 C.3     
  18 O18           -0.0024    -1.5228     0.2035 O.2     
  19 C19            1.9815     1.5218     3.1291 C.3     
  20 H20            3.4206    -0.7236     2.7745 H       
  21 C21            6.7980     2.2330     2.3439 C.3     
  22 C22            7.3022     4.7118    -0.4670 C.3     
  23 C23            8.6097     5.2499    -1.0516 C.3     
  24 C24            8.3339     6.5538    -1.8030 C.3     
  25 C25            6.3691     4.2929    -1.6048 C.3     
  26 C26            9.6217     7.0838    -2.3789 C.2     
  27 O27           10.6542     6.4806    -2.2060 O.2     
  28 O28            9.6217     8.2261    -3.0839 O.3     
  29 H29           -0.2074     0.9428    -0.1628 H       
  30 H30           -0.1911     1.1680     1.5992 H       
  31 H31            1.0109    -0.9724     3.0115 H       
  32 H32            1.6072    -2.2751     1.9626 H       
  33 H33            2.1959     1.0709    -0.2949 H       
  34 H34            1.6178     2.4919     0.5997 H       
  35 H35            3.6750    -2.0913     0.7529 H       
  36 H36            2.9084    -0.8234    -0.2287 H       
  37 H37            5.4973    -0.5250     1.3633 H       
  38 H38            5.3684    -0.6831    -0.4092 H       
  39 H39            3.8834     1.3189    -0.4308 H       
  40 H40            4.5776     1.2980     2.5325 H       
  41 H41            5.6075     2.5260    -0.9369 H       
  42 H42            5.5218     4.5543     2.2181 H       
  43 H43            5.0133     4.5660     0.5207 H       
  44 H44            3.1235     3.5365     1.0666 H       
  45 H45            3.6348     3.5011     2.7588 H       
  46 H46            7.4102     0.5000     0.5018 H       
  47 H47            7.0624     0.6338    -1.2477 H       
  48 H48            9.1352     2.0339    -0.0581 H       
  49 H49            8.2389     2.6464    -1.4807 H       
  50 H50            8.3123     3.7724     1.1976 H       
  51 H51            2.6347     1.2768     3.9666 H       
  52 H52            1.8441     2.6019     3.0794 H       
  53 H53            1.0146     1.0386     3.2690 H       
  54 H54            7.5469     1.4834     2.0882 H       
  55 H55            7.2340     2.9652     3.0235 H       
  56 H56            5.9495     1.7487     2.8273 H       
  57 H57            6.8232     5.4892     0.1282 H       
  58 H58            9.3180     5.4383    -0.2449 H       
  59 H59            9.0294     4.5159    -1.7395 H       
  60 H60            7.6255     6.3654    -2.6098 H       
  61 H61            7.9142     7.2878    -1.1151 H       
  62 H62            5.3809     4.0716    -1.2015 H       
  63 H63            6.2925     5.1038    -2.3291 H       
  64 H64            6.7689     3.4049    -2.0944 H       
  65 H65           10.4720     8.5263    -3.4333 H       
@<TRIPOS>BOND
   1    1    2 1
   2    1    6 1
   3    1   29 1
   4    1   30 1
   5    2    3 1
   6    2   18 2
   7    3    4 1
   8    3   31 1
   9    3   32 1
  10    4    5 1
  11    4    7 1
  12    4   20 1
  13    5    6 1
  14    5   19 1
  15    5   10 1
  16    6   33 1
  17    6   34 1
  18    7    8 1
  19    7   35 1
  20    7   36 1
  21    8    9 1
  22    8   37 1
  23    8   38 1
  24    9   10 1
  25    9   11 1
  26    9   39 1
  27   10   14 1
  28   10   40 1
  29   11   12 1
  30   11   15 1
  31   11   41 1
  32   12   13 1
  33   12   21 1
  34   12   17 1
  35   13   14 1
  36   13   42 1
  37   13   43 1
  38   14   44 1
  39   14   45 1
  40   15   16 1
  41   15   46 1
  42   15   47 1
  43   16   17 1
  44   16   48 1
  45   16   49 1
  46   17   22 1
  47   17   50 1
  48   19   51 1
  49   19   52 1
  50   19   53 1
  51   21   54 1
  52   21   55 1
  53   21   56 1
  54   22   23 1
  55   22   25 1
  56   22   57 1
  57   23   24 1
  58   23   58 1
  59   23   59 1
  60   24   26 1
  61   24   60 1
  62   24   61 1
  63   25   62 1
  64   25   63 1
  65   25   64 1
  66   26   27 2
  67   26   28 1
  68   28   65 1

#	End of record

