#	Name: ASD03430394
#	Creating user name:	WinNT
#	Creation time:	15. 06. 2019 20:41

#	Modifying user name:	WinNT
#	Modification time:	15. 06. 2019 20:41

#	Program:	/corina/corina34_cracker 3.40 0067  02.08.2006

@<TRIPOS>MOLECULE
ASD03430394
  39   42    0    0    0
SMALL
NO_CHARGES


@<TRIPOS>ATOM
   1 N1            -0.4600     1.4126     1.0195 N.am    
   2 C2            -0.9663     0.4600     1.8215 C.2     
   3 C3             0.1510    -0.0438     2.6858 C.2     
   4 C4             1.3299     0.7364     2.2717 C.ar    
   5 C5             2.6623     0.7422     2.6882 C.ar    
   6 C6             3.5593     1.6068     2.0983 C.ar    
   7 C7             3.1374     2.4676     1.0941 C.ar    
   8 C8             1.8170     2.4691     0.6740 C.ar    
   9 C9             0.8992     1.6064     1.2554 C.ar    
  10 O10           -2.1174     0.0778     1.8426 O.2     
  11 O11            0.0960    -0.9053     3.5391 O.2     
  12 F12            4.0227     3.3122     0.5213 F       
  13 C13           -1.2375     2.1490     0.0198 C.3     
  14 C14           -1.7442     1.1914    -1.0278 C.ar    
  15 C15           -2.7818     1.5645    -1.8613 C.ar    
  16 C16           -3.2466     0.6861    -2.8222 C.ar    
  17 C17           -2.6734    -0.5653    -2.9498 C.ar    
  18 C18           -1.6351    -0.9382    -2.1168 C.ar    
  19 C19           -1.1675    -0.0581    -1.1588 C.ar    
  20 C20           -2.4060     2.8245     0.6900 C.ar    
  21 C21           -2.3653     4.1823     0.9466 C.ar    
  22 C22           -3.4371     4.8019     1.5615 C.ar    
  23 C23           -4.5499     4.0639     1.9194 C.ar    
  24 C24           -4.5910     2.7064     1.6620 C.ar    
  25 C25           -3.5209     2.0875     1.0432 C.ar    
  26 H26            2.9889     0.0722     3.4698 H       
  27 H27            4.5909     1.6148     2.4178 H       
  28 H28            1.5015     3.1436    -0.1082 H       
  29 H29           -0.6044     2.9009    -0.4512 H       
  30 H30           -3.2297     2.5422    -1.7617 H       
  31 H31           -4.0578     0.9774    -3.4730 H       
  32 H32           -3.0370    -1.2519    -3.7000 H       
  33 H33           -1.1875    -1.9160    -2.2162 H       
  34 H34           -0.3538    -0.3480    -0.5105 H       
  35 H35           -1.4959     4.7588     0.6670 H       
  36 H36           -3.4050     5.8625     1.7626 H       
  37 H37           -5.3870     4.5479     2.4004 H       
  38 H38           -5.4602     2.1297     1.9419 H       
  39 H39           -3.5545     1.0276     0.8388 H       
@<TRIPOS>BOND
   1    1    2 am
   2    1    9 1
   3    1   13 1
   4    2    3 1
   5    2   10 2
   6    3    4 1
   7    3   11 2
   8    4    5 ar
   9    4    9 ar
  10    5    6 ar
  11    5   26 1
  12    6    7 ar
  13    6   27 1
  14    7    8 ar
  15    7   12 1
  16    8    9 ar
  17    8   28 1
  18   13   14 1
  19   13   20 1
  20   13   29 1
  21   14   15 ar
  22   14   19 ar
  23   15   16 ar
  24   15   30 1
  25   16   17 ar
  26   16   31 1
  27   17   18 ar
  28   17   32 1
  29   18   19 ar
  30   18   33 1
  31   19   34 1
  32   20   21 ar
  33   20   25 ar
  34   21   22 ar
  35   21   35 1
  36   22   23 ar
  37   22   36 1
  38   23   24 ar
  39   23   37 1
  40   24   25 ar
  41   24   38 1
  42   25   39 1

#	End of record

