#	Name: ASD07300644
#	Creating user name:	WinNT
#	Creation time:	15. 06. 2019 21:10

#	Modifying user name:	WinNT
#	Modification time:	15. 06. 2019 21:10

#	Program:	/corina/corina34_cracker 3.40 0067  02.08.2006

@<TRIPOS>MOLECULE
ASD07300644
  23   24    0    0    0
SMALL
NO_CHARGES


@<TRIPOS>ATOM
   1 C1            -0.0171     1.4104     0.0098 C.2     
   2 C2             0.0021    -0.0041     0.0020 C.2     
   3 N3             1.1809     2.0868     0.0020 N.pl3   
   4 N4             1.1496    -0.6378    -0.0123 N.2     
   5 C5             2.3107     0.0239    -0.0199 C.2     
   6 C6             2.3496     1.3715    -0.0130 C.2     
   7 N7            -0.9969     2.2930     0.0292 N.2     
   8 C8            -0.4712     3.5311     0.0284 C.2     
   9 C9             0.9039     3.4082     0.0122 C.2     
  10 C10           -1.2290     4.7953     0.0466 C.2     
  11 O11           -0.6388     5.8576     0.0434 O.2     
  12 O12           -2.5762     4.7731     0.0667 O.3     
  13 Cl13          -1.4869    -0.8965     0.0120 Cl      
  14 Br14           2.1603     4.8215     0.0080 Br      
  15 C15           -3.2565     6.0558     0.0838 C.3     
  16 C16           -4.7696     5.8304     0.1054 C.3     
  17 H17            3.2365    -0.5321    -0.0313 H       
  18 H18            3.2993     1.8858    -0.0190 H       
  19 H19           -2.9594     6.6128     0.9724 H       
  20 H20           -2.9862     6.6224    -0.8073 H       
  21 H21           -5.0667     5.2734    -0.7832 H       
  22 H22           -5.0399     5.2639     0.9965 H       
  23 H23           -5.2803     6.7933     0.1182 H       
@<TRIPOS>BOND
   1    1    2 1
   2    1    3 1
   3    1    7 2
   4    2    4 2
   5    2   13 1
   6    3    6 1
   7    3    9 1
   8    4    5 1
   9    5    6 2
  10    5   17 1
  11    6   18 1
  12    7    8 1
  13    8    9 2
  14    8   10 1
  15    9   14 1
  16   10   11 2
  17   10   12 1
  18   12   15 1
  19   15   16 1
  20   15   19 1
  21   15   20 1
  22   16   21 1
  23   16   22 1
  24   16   23 1

#	End of record

