#	Name: ASD04162008
#	Creating user name:	WinNT
#	Creation time:	15. 06. 2019 20:48

#	Modifying user name:	WinNT
#	Modification time:	15. 06. 2019 20:48

#	Program:	/corina/corina34_cracker 3.40 0067  02.08.2006

@<TRIPOS>MOLECULE
ASD04162008
  37   39    0    0    0
SMALL
NO_CHARGES


@<TRIPOS>ATOM
   1 C1            -0.0344     1.3317     0.4451 C.ar    
   2 C2            -0.0104    -0.0380     0.1980 C.ar    
   3 C3            -1.1769    -0.7343    -0.0255 C.ar    
   4 C4            -2.4087    -0.0491    -0.0034 C.ar    
   5 C5            -2.4218     1.3453     0.2491 C.ar    
   6 C6            -1.2093     2.0186     0.4781 C.ar    
   7 C7            -3.6195    -0.7252    -0.2275 C.ar    
   8 C8            -4.7935    -0.0403    -0.2009 C.ar    
   9 C9            -4.8167     1.3373     0.0477 C.ar    
  10 C10           -3.6479     2.0305     0.2719 C.ar    
  11 S11            1.4792     2.1887     0.7266 S.o2    
  12 O12            1.1479     3.3557     1.4665 O.2     
  13 O13            2.4112     1.2178     1.1828 O.2     
  14 O14            1.9847     2.6670    -0.6269 O.3     
  15 O15           -1.1411    -2.0704    -0.2659 O.3     
  16 N16           -6.0385     2.0159     0.0692 N.am    
  17 C17           -7.1354     1.4133     0.5692 C.2     
  18 O18           -7.0826     0.2516     0.9234 O.2     
  19 C19           -8.4027     2.1649     0.6871 C.ar    
  20 C20           -9.5407     1.5437     1.2046 C.ar    
  21 C21          -10.7201     2.2511     1.3123 C.ar    
  22 C22          -10.7769     3.5732     0.9084 C.ar    
  23 C23           -9.6528     4.1948     0.3942 C.ar    
  24 C24           -8.4654     3.5007     0.2868 C.ar    
  25 H25            0.9346    -0.5607     0.1811 H       
  26 H26           -1.2091     3.0811     0.6714 H       
  27 H27           -3.6177    -1.7877    -0.4210 H       
  28 H28           -5.7209    -0.5659    -0.3744 H       
  29 H29           -3.6738     3.0931     0.4633 H       
  30 H30            2.8189     3.1543    -0.5855 H       
  31 H31           -1.2026    -2.6151     0.5307 H       
  32 H32           -6.0970     2.9206    -0.2758 H       
  33 H33           -9.4979     0.5116     1.5196 H       
  34 H34          -11.6013     1.7717     1.7125 H       
  35 H35          -11.7028     4.1224     0.9945 H       
  36 H36           -9.7038     5.2269     0.0803 H       
  37 H37           -7.5886     3.9870    -0.1148 H       
@<TRIPOS>BOND
   1    1    2 ar
   2    1   11 1
   3    1    6 ar
   4    2    3 ar
   5    2   25 1
   6    3    4 ar
   7    3   15 1
   8    4    5 ar
   9    4    7 ar
  10    5    6 ar
  11    5   10 ar
  12    6   26 1
  13    7    8 ar
  14    7   27 1
  15    8    9 ar
  16    8   28 1
  17    9   10 ar
  18    9   16 1
  19   10   29 1
  20   11   12 2
  21   11   13 2
  22   11   14 1
  23   14   30 1
  24   15   31 1
  25   16   17 am
  26   16   32 1
  27   17   18 2
  28   17   19 1
  29   19   20 ar
  30   19   24 ar
  31   20   21 ar
  32   20   33 1
  33   21   22 ar
  34   21   34 1
  35   22   23 ar
  36   22   35 1
  37   23   24 ar
  38   23   36 1
  39   24   37 1

#	End of record

