#	Name: ASD01916334
#	Creating user name:	WinNT
#	Creation time:	15. 06. 2019 20:07

#	Modifying user name:	WinNT
#	Modification time:	15. 06. 2019 20:07

#	Program:	/corina/corina34_cracker 3.40 0067  02.08.2006

@<TRIPOS>MOLECULE
ASD01916334
  41   42    0    0    0
SMALL
NO_CHARGES


@<TRIPOS>ATOM
   1 C1            -0.0169     1.3974     0.0097 C.ar    
   2 C2             0.0021    -0.0041     0.0020 C.ar    
   3 C3             1.2366    -0.6676    -0.0133 C.ar    
   4 N4             2.3606     0.0097    -0.0204 N.ar    
   5 C5             2.3777     1.3384    -0.0135 C.ar    
   6 C6             1.1902     2.0701     0.0018 C.ar    
   7 C7            -1.2220    -0.7472     0.0102 C.1     
   8 C8            -2.2255    -1.3564     0.0169 C.1     
   9 C9            -3.4496    -2.0996     0.0250 C.ar    
  10 C10            3.6742     2.0515    -0.0220 C.2     
  11 O11            3.6995     3.2667    -0.0157 O.2     
  12 N12            4.8271     1.3536    -0.0368 N.am    
  13 C13           -3.4131    -3.4961     0.0172 C.ar    
  14 C14           -4.6047    -4.1991     0.0253 C.ar    
  15 C15           -5.7953    -3.4859     0.0409 C.ar    
  16 C16           -5.7593    -2.1026     0.0480 C.ar    
  17 N17           -4.6128    -1.4554     0.0455 N.ar    
  18 C18            6.1107     2.0596    -0.0452 C.3     
  19 C19            7.1934     1.1567     0.5492 C.3     
  20 C20            6.4833     2.4233    -1.4839 C.3     
  21 C21            8.5339     1.8940     0.5404 C.3     
  22 C22            6.8208     0.7930     1.9879 C.3     
  23 H23           -0.9518     1.9381     0.0171 H       
  24 H24            1.2630    -1.7473    -0.0190 H       
  25 H25            1.2139     3.1498     0.0074 H       
  26 H26            4.8069     0.3838    -0.0418 H       
  27 H27           -2.4684    -4.0194     0.0047 H       
  28 H28           -4.6084    -5.2790     0.0191 H       
  29 H29           -6.7418    -4.0061     0.0472 H       
  30 H30           -6.6848    -1.5460     0.0598 H       
  31 H31            6.0290     2.9692     0.5499 H       
  32 H32            7.2750     0.2471    -0.0459 H       
  33 H33            5.7120     3.0666    -1.9074 H       
  34 H34            7.4383     2.9486    -1.4902 H       
  35 H35            6.5649     1.5138    -2.0791 H       
  36 H36            8.4523     2.8035     1.1356 H       
  37 H37            9.3052     1.2507     0.9639 H       
  38 H38            8.7993     2.1531    -0.4845 H       
  39 H39            6.7391     1.7025     2.5831 H       
  40 H40            5.8658     0.2677     1.9942 H       
  41 H41            7.5921     0.1497     2.4115 H       
@<TRIPOS>BOND
   1    1    2 ar
   2    1    6 ar
   3    1   23 1
   4    2    3 ar
   5    2    7 1
   6    3    4 ar
   7    3   24 1
   8    4    5 ar
   9    5    6 ar
  10    5   10 1
  11    6   25 1
  12    7    8 3
  13    8    9 1
  14    9   13 ar
  15    9   17 ar
  16   10   11 2
  17   10   12 am
  18   12   18 1
  19   12   26 1
  20   13   14 ar
  21   13   27 1
  22   14   15 ar
  23   14   28 1
  24   15   16 ar
  25   15   29 1
  26   16   17 ar
  27   16   30 1
  28   18   19 1
  29   18   20 1
  30   18   31 1
  31   19   21 1
  32   19   22 1
  33   19   32 1
  34   20   33 1
  35   20   34 1
  36   20   35 1
  37   21   36 1
  38   21   37 1
  39   21   38 1
  40   22   39 1
  41   22   40 1
  42   22   41 1

#	End of record

