#	Name: ASD01410129
#	Creating user name:	WinNT
#	Creation time:	15. 06. 2019 19:16

#	Modifying user name:	WinNT
#	Modification time:	15. 06. 2019 19:16

#	Program:	/corina/corina34_cracker 3.40 0067  02.08.2006

@<TRIPOS>MOLECULE
ASD01410129
  74   79    0    0    0
SMALL
NO_CHARGES


@<TRIPOS>ATOM
   1 C1             0.1743     1.6523    -2.8549 C.ar    
   2 C2             0.5148     0.3057    -2.6265 C.ar    
   3 C3            -0.3299    -0.5119    -1.8847 C.ar    
   4 C4            -1.4936    -0.0132    -1.3746 C.ar    
   5 C5            -1.8489     1.3245    -1.5922 C.ar    
   6 C6            -1.0133     2.1597    -2.3276 C.ar    
   7 N7             1.1707     2.1974    -3.5974 N.2     
   8 C8             2.0861     1.2899    -3.8367 C.2     
   9 N9             1.7253     0.1030    -3.2565 N.pl3   
  10 C10           -3.1112     1.8510    -1.0355 C.2     
  11 N11           -3.9197     1.0450    -0.3191 N.am    
  12 C12           -5.1721     1.5672     0.2332 C.3     
  13 C13            3.3213     1.5140    -4.6158 C.2     
  14 C14            4.0897     0.5132    -5.3680 C.2     
  15 C15            5.1251     1.1733    -5.9112 C.2     
  16 O16            5.0535     2.4664    -5.5600 O.3     
  17 C17            3.9810     2.6922    -4.7906 C.2     
  18 C18            2.4840    -1.1496    -3.2974 C.3     
  19 C19            2.7901    -1.6072    -1.8699 C.3     
  20 C20            3.5825    -2.9154    -1.9126 C.3     
  21 C21            2.7575    -3.9883    -2.6262 C.3     
  22 C22            2.4513    -3.5307    -4.0537 C.3     
  23 C23            1.6590    -2.2225    -4.0110 C.3     
  24 O24           -3.4212     3.0115    -1.2233 O.2     
  25 C25           -6.1605     0.4165     0.4329 C.3     
  26 C26           -4.8986     2.2303     1.5586 C.2     
  27 O27           -3.8958     1.9510     2.1809 O.2     
  28 N28           -5.7685     3.1336     2.0524 N.am    
  29 C29           -6.5486    -0.1507    -0.9083 C.ar    
  30 C30           -5.8134    -1.1838    -1.4596 C.ar    
  31 C31           -6.1672    -1.7055    -2.6889 C.ar    
  32 C32           -7.2611    -1.1919    -3.3702 C.ar    
  33 C33           -7.9972    -0.1554    -2.8149 C.ar    
  34 C34           -7.6427     0.3590    -1.5827 C.ar    
  35 O35           -7.6109    -1.7032    -4.5799 O.3     
  36 C36           -5.4695     3.8770     3.2866 C.3     
  37 C37           -5.6857     5.3703     3.0159 C.3     
  38 O38           -6.9875     5.5639     2.4577 O.3     
  39 C39           -7.1845     4.9221     1.1955 C.3     
  40 C40           -7.0425     3.4100     1.3699 C.3     
  41 H41           -0.0649    -1.5445    -1.7117 H       
  42 H42           -2.1452    -0.6543    -0.7995 H       
  43 H43           -1.2862     3.1910    -2.4956 H       
  44 H44           -3.6724     0.1191    -0.1693 H       
  45 H45           -5.5974     2.2960    -0.4567 H       
  46 H46            3.8671    -0.5392    -5.4646 H       
  47 H47            5.8926     0.7339    -6.5310 H       
  48 H48            3.6921     3.6458    -4.3739 H       
  49 H49            3.4180    -0.9912    -3.8364 H       
  50 H50            3.3778    -0.8429    -1.3615 H       
  51 H51            1.8561    -1.7656    -1.3309 H       
  52 H52            4.5166    -2.7570    -2.4516 H       
  53 H53            3.8006    -3.2414    -0.8956 H       
  54 H54            3.3220    -4.9202    -2.6566 H       
  55 H55            1.8234    -4.1467    -2.0872 H       
  56 H56            3.3854    -3.3723    -4.5927 H       
  57 H57            1.8636    -4.2950    -4.5621 H       
  58 H58            0.7249    -2.3809    -3.4720 H       
  59 H59            1.4409    -1.8965    -5.0280 H       
  60 H60           -5.6940    -0.3626     1.0357 H       
  61 H61           -7.0504     0.7862     0.9423 H       
  62 H62           -4.9617    -1.5829    -0.9290 H       
  63 H63           -5.5924    -2.5122    -3.1193 H       
  64 H64           -8.8492     0.2461    -3.3433 H       
  65 H65           -8.2154     1.1660    -1.1500 H       
  66 H66           -8.2369    -2.4385    -4.5300 H       
  67 H67           -6.1361     3.5482     4.0838 H       
  68 H68           -4.4338     3.7030     3.5782 H       
  69 H69           -5.6041     5.9253     3.9505 H       
  70 H70           -4.9318     5.7259     2.3135 H       
  71 H71           -8.1811     5.1547     0.8204 H       
  72 H72           -6.4361     5.2761     0.4865 H       
  73 H73           -7.0504     2.9255     0.3935 H       
  74 H74           -7.8664     3.0313     1.9748 H       
@<TRIPOS>BOND
   1    1    2 ar
   2    1    7 1
   3    1    6 ar
   4    2    3 ar
   5    2    9 1
   6    3    4 ar
   7    3   41 1
   8    4    5 ar
   9    4   42 1
  10    5    6 ar
  11    5   10 1
  12    6   43 1
  13    7    8 2
  14    8    9 1
  15    8   13 1
  16    9   18 1
  17   10   11 am
  18   10   24 2
  19   11   12 1
  20   11   44 1
  21   12   25 1
  22   12   26 1
  23   12   45 1
  24   13   14 1
  25   13   17 2
  26   14   15 2
  27   14   46 1
  28   15   16 1
  29   15   47 1
  30   16   17 1
  31   17   48 1
  32   18   19 1
  33   18   23 1
  34   18   49 1
  35   19   20 1
  36   19   50 1
  37   19   51 1
  38   20   21 1
  39   20   52 1
  40   20   53 1
  41   21   22 1
  42   21   54 1
  43   21   55 1
  44   22   23 1
  45   22   56 1
  46   22   57 1
  47   23   58 1
  48   23   59 1
  49   25   29 1
  50   25   60 1
  51   25   61 1
  52   26   27 2
  53   26   28 am
  54   28   36 1
  55   28   40 1
  56   29   30 ar
  57   29   34 ar
  58   30   31 ar
  59   30   62 1
  60   31   32 ar
  61   31   63 1
  62   32   33 ar
  63   32   35 1
  64   33   34 ar
  65   33   64 1
  66   34   65 1
  67   35   66 1
  68   36   37 1
  69   36   67 1
  70   36   68 1
  71   37   38 1
  72   37   69 1
  73   37   70 1
  74   38   39 1
  75   39   40 1
  76   39   71 1
  77   39   72 1
  78   40   73 1
  79   40   74 1

#	End of record

