#	Name: ASD01908074
#	Creating user name:	WinNT
#	Creation time:	15. 06. 2019 19:54

#	Modifying user name:	WinNT
#	Modification time:	15. 06. 2019 19:54

#	Program:	/corina/corina34_cracker 3.40 0067  02.08.2006

@<TRIPOS>MOLECULE
ASD01908074
  34   35    0    0    0
SMALL
NO_CHARGES


@<TRIPOS>ATOM
   1 N1            -0.0169     1.3953     0.0097 N.pl3   
   2 N2             0.0021    -0.0041     0.0020 N.2     
   3 C3             1.2430    -0.4084    -0.0120 C.2     
   4 C4             2.0748     0.7315    -0.0138 C.2     
   5 C5             1.2530     1.8372    -0.0000 C.2     
   6 C6             3.5532     0.7380    -0.0275 C.2     
   7 N7             4.2100    -0.3882    -0.0394 N.2     
   8 N8             4.2369     1.9343    -0.0276 N.pl3   
   9 C9             1.7065    -1.8423    -0.0241 C.3     
  10 C10           -1.2167     2.2359     0.0202 C.3     
  11 C11           -2.1018     1.8627    -1.1410 C.ar    
  12 C12           -3.0667     0.8845    -0.9867 C.ar    
  13 C13           -3.8793     0.5405    -2.0496 C.ar    
  14 C14           -3.7265     1.1775    -3.2726 C.ar    
  15 C15           -2.7576     2.1587    -3.4247 C.ar    
  16 C16           -1.9513     2.5030    -2.3572 C.ar    
  17 O17           -4.5244     0.8406    -4.3198 O.3     
  18 C18           -4.3107     1.5378    -5.5488 C.3     
  19 H19            1.5705     2.8695     0.0025 H       
  20 H20            5.1799    -0.3839    -0.0483 H       
  21 H21            3.7483     2.7722    -0.0188 H       
  22 H22            5.2069     1.9386    -0.0366 H       
  23 H23            1.8089    -2.1824    -1.0547 H       
  24 H24            2.6698    -1.9171     0.4805 H       
  25 H25            0.9762    -2.4646     0.4930 H       
  26 H26           -1.7586     2.0840     0.9537 H       
  27 H27           -0.9272     3.2833    -0.0655 H       
  28 H28           -3.1850     0.3887    -0.0346 H       
  29 H29           -4.6326    -0.2238    -1.9287 H       
  30 H30           -2.6367     2.6559    -4.3758 H       
  31 H31           -1.2000     3.2700    -2.4738 H       
  32 H32           -4.4672     2.6052    -5.3929 H       
  33 H33           -3.2902     1.3664    -5.8911 H       
  34 H34           -5.0118     1.1737    -6.2997 H       
@<TRIPOS>BOND
   1    1    2 1
   2    1    5 1
   3    1   10 1
   4    2    3 2
   5    3    4 1
   6    3    9 1
   7    4    5 2
   8    4    6 1
   9    5   19 1
  10    6    7 2
  11    6    8 1
  12    7   20 1
  13    8   21 1
  14    8   22 1
  15    9   23 1
  16    9   24 1
  17    9   25 1
  18   10   11 1
  19   10   26 1
  20   10   27 1
  21   11   12 ar
  22   11   16 ar
  23   12   13 ar
  24   12   28 1
  25   13   14 ar
  26   13   29 1
  27   14   15 ar
  28   14   17 1
  29   15   16 ar
  30   15   30 1
  31   16   31 1
  32   17   18 1
  33   18   32 1
  34   18   33 1
  35   18   34 1

#	End of record

