#	Name: ASD08178056
#	Creating user name:	WinNT
#	Creation time:	15. 06. 2019 21:18

#	Modifying user name:	WinNT
#	Modification time:	15. 06. 2019 21:18

#	Program:	/corina/corina34_cracker 3.40 0067  02.08.2006

@<TRIPOS>MOLECULE
ASD08178056
  64   69    0    0    0
SMALL
NO_CHARGES


@<TRIPOS>ATOM
   1 N1            -0.0150     1.2583     0.0090 N.2     
   2 N2             0.0021    -0.0041     0.0020 N.2     
   3 C3             1.1271     1.8769     0.0014 C.2     
   4 S4             2.3826     0.7116    -0.0169 S.3     
   5 C5             1.1681    -0.5677    -0.0121 C.2     
   6 N6             1.3017     3.2566     0.0067 N.am    
   7 C7             0.2284     4.0717     0.0214 C.2     
   8 O8            -0.8897     3.6019     0.0299 O.2     
   9 C9             1.4387    -2.0502    -0.0227 C.3     
  10 C10            1.5165    -2.5442    -1.4687 C.3     
  11 C11            1.7912    -4.0493    -1.4794 C.3     
  12 C12            1.8690    -4.5432    -2.9254 C.3     
  13 C13            2.1395    -6.0257    -2.9359 C.2     
  14 N14            1.2478    -6.9651    -2.9329 N.2     
  15 S15            3.7275    -6.7933    -2.9623 S.3     
  16 C16            2.9647    -8.3272    -2.9581 C.2     
  17 N17            1.6777    -8.1521    -2.9433 N.2     
  18 N18            3.6154    -9.5562    -2.9730 N.am    
  19 C19            2.8993   -10.6980    -2.9678 C.2     
  20 O20            1.6874   -10.6536    -2.9501 O.2     
  21 C21            3.6044   -12.0297    -2.9839 C.3     
  22 C22            0.4176     5.5667     0.0272 C.3     
  23 O23            2.6455   -13.0854    -2.8573 O.3     
  24 C24            3.0778   -14.3426    -3.1489 C.ar    
  25 C25            4.2465   -14.5427    -3.8738 C.ar    
  26 O26            4.9887   -13.4861    -4.3044 O.3     
  27 C27            4.3424   -12.2086    -4.3176 C.3     
  28 C28            2.3396   -15.4340    -2.7156 C.ar    
  29 C29            2.7647   -16.7166    -3.0056 C.ar    
  30 C30            3.9263   -16.9156    -3.7283 C.ar    
  31 C31            4.6667   -15.8325    -4.1628 C.ar    
  32 C32            1.0755     6.0103    -1.2865 C.3     
  33 O33            1.2282     7.4335    -1.2530 O.3     
  34 C34            0.1508     8.1547    -0.8390 C.ar    
  35 C35           -0.8884     7.5463    -0.1452 C.ar    
  36 O36           -0.8551     6.2142     0.1318 O.3     
  37 C37            0.0939     9.5129    -1.1148 C.ar    
  38 C38           -0.9927    10.2589    -0.6991 C.ar    
  39 C39           -2.0252     9.6541    -0.0066 C.ar    
  40 C40           -1.9753     8.3011     0.2704 C.ar    
  41 H41            2.1959     3.6323    -0.0001 H       
  42 H42            2.3843    -2.2506     0.4811 H       
  43 H43            0.6334    -2.5702     0.4961 H       
  44 H44            0.5709    -2.3438    -1.9724 H       
  45 H45            2.3218    -2.0242    -1.9874 H       
  46 H46            2.7368    -4.2496    -0.9756 H       
  47 H47            0.9858    -4.5693    -0.9606 H       
  48 H48            0.9234    -4.3429    -3.4291 H       
  49 H49            2.6743    -4.0232    -3.4441 H       
  50 H50            4.5846    -9.5917    -2.9871 H       
  51 H51            4.3162   -12.0788    -2.1598 H       
  52 H52            1.0474     5.8543     0.8691 H       
  53 H53            3.6292   -12.1659    -5.1408 H       
  54 H54            5.0869   -11.4211    -4.4343 H       
  55 H55            1.4318   -15.2814    -2.1508 H       
  56 H56            2.1886   -17.5650    -2.6669 H       
  57 H57            4.2559   -17.9191    -3.9536 H       
  58 H58            5.5737   -15.9907    -4.7274 H       
  59 H59            2.0528     5.5379    -1.3861 H       
  60 H60            0.4428     5.7282    -2.1281 H       
  61 H61            0.8994     9.9878    -1.6551 H       
  62 H62           -1.0351    11.3161    -0.9154 H       
  63 H63           -2.8722    10.2400     0.3183 H       
  64 H64           -2.7833     7.8311     0.8113 H       
@<TRIPOS>BOND
   1    1    2 1
   2    1    3 2
   3    2    5 2
   4    3    4 1
   5    3    6 1
   6    4    5 1
   7    5    9 1
   8    6    7 am
   9    6   41 1
  10    7    8 2
  11    7   22 1
  12    9   10 1
  13    9   42 1
  14    9   43 1
  15   10   11 1
  16   10   44 1
  17   10   45 1
  18   11   12 1
  19   11   46 1
  20   11   47 1
  21   12   13 1
  22   12   48 1
  23   12   49 1
  24   13   14 2
  25   13   15 1
  26   14   17 1
  27   15   16 1
  28   16   17 2
  29   16   18 1
  30   18   19 am
  31   18   50 1
  32   19   20 2
  33   19   21 1
  34   21   23 1
  35   21   27 1
  36   21   51 1
  37   22   32 1
  38   22   36 1
  39   22   52 1
  40   23   24 1
  41   24   25 ar
  42   24   28 ar
  43   25   26 1
  44   25   31 ar
  45   26   27 1
  46   27   53 1
  47   27   54 1
  48   28   29 ar
  49   28   55 1
  50   29   30 ar
  51   29   56 1
  52   30   31 ar
  53   30   57 1
  54   31   58 1
  55   32   33 1
  56   32   59 1
  57   32   60 1
  58   33   34 1
  59   34   35 ar
  60   34   37 ar
  61   35   36 1
  62   35   40 ar
  63   37   38 ar
  64   37   61 1
  65   38   39 ar
  66   38   62 1
  67   39   40 ar
  68   39   63 1
  69   40   64 1

#	End of record

