#	Name: ASD01150621
#	Creating user name:	WinNT
#	Creation time:	15. 06. 2019 19:04

#	Modifying user name:	WinNT
#	Modification time:	15. 06. 2019 19:04

#	Program:	/corina/corina34_cracker 3.40 0067  02.08.2006

@<TRIPOS>MOLECULE
ASD01150621
  53   55    0    0    0
SMALL
NO_CHARGES


@<TRIPOS>ATOM
   1 C1             0.4940     1.3928    -0.9445 C.ar    
   2 C2             0.4600     0.0121    -0.9191 C.ar    
   3 C3             1.9461     0.0072     0.9680 C.ar    
   4 C4             1.9822     1.3938     0.9444 C.ar    
   5 C5             1.2553     2.0879    -0.0127 C.ar    
   6 N6             1.2894     3.4867    -0.0395 N.am    
   7 C7             0.1379     4.1763    -0.1207 C.2     
   8 N8             0.1338     5.5220    -0.1487 N.am    
   9 C9             1.2975     6.2026    -0.0947 C.2     
  10 C10            2.5605     5.4544    -0.0054 C.2     
  11 N11            2.5215     4.1482     0.0242 N.2     
  12 O12            1.3021     7.4193    -0.1199 O.2     
  13 C13           -1.1353     6.2483    -0.2383 C.3     
  14 O14           -0.9175     3.5740    -0.1699 O.2     
  15 C15           -1.6539     6.5266     1.1490 C.ar    
  16 O16            3.7486     6.1106     0.0505 O.3     
  17 C17            4.9288     5.3094     0.1361 C.3     
  18 C18            1.1830    -0.6826     0.0331 C.ar    
  19 N19            2.6782    -0.6965     1.9314 N.am    
  20 C20            2.9411    -0.1290     3.1252 C.2     
  21 O21            2.6194     1.0217     3.3337 O.2     
  22 C22            3.6349    -0.9241     4.2011 C.3     
  23 C23           -1.2973     7.6941     1.7979 C.ar    
  24 C24           -1.7708     7.9538     3.0713 C.ar    
  25 C25           -2.6025     7.0463     3.6989 C.ar    
  26 C26           -2.9628     5.8714     3.0486 C.ar    
  27 C27           -2.4897     5.6173     1.7683 C.ar    
  28 Cl28           1.1373    -2.4178     0.0612 Cl      
  29 Cl29          -3.1961     7.3723     5.2973 Cl      
  30 N30           -3.8033     4.9508     3.6802 N.3     
  31 C31           -5.0335     4.7428     2.9048 C.3     
  32 C32           -3.1081     3.6784     3.9157 C.3     
  33 H33           -0.0682     1.9326    -1.6921 H       
  34 H34           -0.1328    -0.5258    -1.6441 H       
  35 H35            2.5746     1.9320     1.6695 H       
  36 H36           -0.9784     7.1905    -0.7634 H       
  37 H37           -1.8614     5.6452    -0.7834 H       
  38 H38            5.8052     5.9564     0.1740 H       
  39 H39            4.8888     4.6986     1.0380 H       
  40 H40            4.9927     4.6620    -0.7385 H       
  41 H41            2.9963    -1.5926     1.7398 H       
  42 H42            4.7135    -0.7972     4.1083 H       
  43 H43            3.3105    -0.5713     5.1801 H       
  44 H44            3.3826    -1.9790     4.0932 H       
  45 H45           -0.6471     8.4048     1.3096 H       
  46 H46           -1.4900     8.8666     3.5756 H       
  47 H47           -2.7679     4.7058     1.2602 H       
  48 H48           -4.7794     4.3626     1.9154 H       
  49 H49           -5.6695     4.0221     3.4187 H       
  50 H50           -5.5644     5.6896     2.8048 H       
  51 H51           -2.2392     3.8512     4.5508 H       
  52 H52           -3.7849     2.9802     4.4083 H       
  53 H53           -2.7842     3.2595     2.9630 H       
@<TRIPOS>BOND
   1    1    2 ar
   2    1    5 ar
   3    1   33 1
   4    2   18 ar
   5    2   34 1
   6    3    4 ar
   7    3   19 1
   8    3   18 ar
   9    4    5 ar
  10    4   35 1
  11    5    6 1
  12    6    7 am
  13    6   11 1
  14    7    8 am
  15    7   14 2
  16    8    9 am
  17    8   13 1
  18    9   10 1
  19    9   12 2
  20   10   11 2
  21   10   16 1
  22   13   15 1
  23   13   36 1
  24   13   37 1
  25   15   23 ar
  26   15   27 ar
  27   16   17 1
  28   17   38 1
  29   17   39 1
  30   17   40 1
  31   18   28 1
  32   19   20 am
  33   19   41 1
  34   20   21 2
  35   20   22 1
  36   22   42 1
  37   22   43 1
  38   22   44 1
  39   23   24 ar
  40   23   45 1
  41   24   25 ar
  42   24   46 1
  43   25   26 ar
  44   25   29 1
  45   26   27 ar
  46   26   30 1
  47   27   47 1
  48   30   31 1
  49   30   32 1
  50   31   48 1
  51   31   49 1
  52   31   50 1
  53   32   51 1
  54   32   52 1
  55   32   53 1

#	End of record

