#	Name: ASD03240490
#	Creating user name:	WinNT
#	Creation time:	15. 06. 2019 20:35

#	Modifying user name:	WinNT
#	Modification time:	15. 06. 2019 20:35

#	Program:	/corina/corina34_cracker 3.40 0067  02.08.2006

@<TRIPOS>MOLECULE
ASD03240490
  29   30    0    0    0
SMALL
NO_CHARGES


@<TRIPOS>ATOM
   1 C1            -0.0167     1.3789     0.0096 C.ar    
   2 C2             0.0021    -0.0041     0.0020 C.ar    
   3 C3             1.1677     2.0877     0.0021 C.ar    
   4 C4             2.3833     1.4077    -0.0132 C.ar    
   5 C5             2.3965     0.0147    -0.0208 C.ar    
   6 C6             1.2064    -0.6842    -0.0127 C.ar    
   7 C7             3.6605     2.1648    -0.0218 C.2     
   8 C8             4.6009     2.1708     0.9666 C.2     
   9 N9             5.6037     2.9804     0.5707 N.pl3   
  10 N10            5.2813     3.4906    -0.6926 N.2     
  11 C11            4.1243     3.0028    -1.0545 C.2     
  12 C12           -1.2942    -0.7726     0.0103 C.3     
  13 C13           -1.7296    -1.0154    -1.3747 C.1     
  14 N14           -2.0656    -1.2027    -2.4436 N.1     
  15 C15            3.4067     3.2939    -2.3473 C.3     
  16 F16            4.2208     4.0853    -3.1646 F       
  17 F17            3.1178     2.0913    -3.0013 F       
  18 F18            2.2152     3.9751    -2.0761 F       
  19 C19            4.5314     1.4102     2.2657 C.3     
  20 H20           -0.9598     1.9052     0.0170 H       
  21 H21            1.1520     3.1676     0.0077 H       
  22 H22            3.3363    -0.5173    -0.0327 H       
  23 H23            1.2154    -1.7642    -0.0183 H       
  24 H24            6.4093     3.1760     1.0744 H       
  25 H25           -1.1480    -1.7262     0.5177 H       
  26 H26           -2.0556    -0.1951     0.5346 H       
  27 H27            4.9851     0.4276     2.1362 H       
  28 H28            5.0696     1.9599     3.0379 H       
  29 H29            3.4892     1.2929     2.5628 H       
@<TRIPOS>BOND
   1    1    2 ar
   2    1    3 ar
   3    1   20 1
   4    2    6 ar
   5    2   12 1
   6    3    4 ar
   7    3   21 1
   8    4    5 ar
   9    4    7 1
  10    5    6 ar
  11    5   22 1
  12    6   23 1
  13    7    8 2
  14    7   11 1
  15    8    9 1
  16    8   19 1
  17    9   10 1
  18    9   24 1
  19   10   11 2
  20   11   15 1
  21   12   13 1
  22   12   25 1
  23   12   26 1
  24   13   14 3
  25   15   16 1
  26   15   17 1
  27   15   18 1
  28   19   27 1
  29   19   28 1
  30   19   29 1

#	End of record

