#	Name: ASD01420682
#	Creating user name:	WinNT
#	Creation time:	15. 06. 2019 19:20

#	Modifying user name:	WinNT
#	Modification time:	15. 06. 2019 19:20

#	Program:	/corina/corina34_cracker 3.40 0067  02.08.2006

@<TRIPOS>MOLECULE
ASD01420682
  42   44    0    0    0
SMALL
NO_CHARGES


@<TRIPOS>ATOM
   1 N1            -0.0153     1.2802     0.0091 N.pl3   
   2 N2             0.0021    -0.0041     0.0020 N.2     
   3 C3             1.2455    -0.4440    -0.0122 C.2     
   4 C4             2.0903     0.6961    -0.0142 C.2     
   5 C5             1.2523     1.7667    -0.0004 C.2     
   6 C6             1.6765    -1.8547    -0.0235 C.2     
   7 O7             2.8611    -2.1284    -0.0359 O.2     
   8 N8             0.7571    -2.8402    -0.0200 N.am    
   9 N9             0.7411    -6.9635    -0.8861 N.3     
  10 C10            0.5160    -6.5840     0.5145 C.3     
  11 C11            0.0894    -5.1159     0.5844 C.3     
  12 C12            1.1851    -4.2412    -0.0312 C.3     
  13 C13            1.4339    -4.6887    -1.4743 C.3     
  14 C14            1.8216    -6.1692    -1.4844 C.3     
  15 N15            3.4930     0.7146    -0.0268 N.am    
  16 C16            4.1514     1.8906    -0.0268 C.2     
  17 C17            5.6264     1.9101    -0.0401 C.ar    
  18 C18            6.3408     1.9134     1.1629 C.ar    
  19 C19            7.7227     1.9312     1.1412 C.ar    
  20 C20            8.3993     1.9458    -0.0650 C.ar    
  21 C21            7.7010     1.9427    -1.2589 C.ar    
  22 C22            6.3190     1.9196    -1.2557 C.ar    
  23 O23            3.5296     2.9356    -0.0160 O.2     
  24 F24            5.6389     1.9114    -2.4230 F       
  25 F25            5.6819     1.8995     2.3422 F       
  26 H26           -0.8184     1.8242     0.0160 H       
  27 H27            1.5405     2.8076     0.0019 H       
  28 H28           -0.1879    -2.6218    -0.0102 H       
  29 H29            0.9309    -7.9512    -0.9671 H       
  30 H30           -0.2683    -7.2106     0.9391 H       
  31 H31            1.4372    -6.7218     1.0807 H       
  32 H32           -0.8392    -4.9800     0.0299 H       
  33 H33           -0.0625    -4.8302     1.6252 H       
  34 H34            2.1030    -4.3463     0.5472 H       
  35 H35            0.5265    -4.5461    -2.0611 H       
  36 H36            2.2427    -4.0978    -1.9042 H       
  37 H37            2.7366    -6.3090    -0.9089 H       
  38 H38            1.9855    -6.4946    -2.5117 H       
  39 H39            3.9890    -0.1189    -0.0354 H       
  40 H40            8.2758     1.9341     2.0688 H       
  41 H41            9.4791     1.9601    -0.0747 H       
  42 H42            8.2372     1.9542    -2.1963 H       
@<TRIPOS>BOND
   1    1    2 1
   2    1    5 1
   3    1   26 1
   4    2    3 2
   5    3    4 1
   6    3    6 1
   7    4    5 2
   8    4   15 1
   9    5   27 1
  10    6    7 2
  11    6    8 am
  12    8   12 1
  13    8   28 1
  14    9   10 1
  15    9   14 1
  16    9   29 1
  17   10   11 1
  18   10   30 1
  19   10   31 1
  20   11   12 1
  21   11   32 1
  22   11   33 1
  23   12   13 1
  24   12   34 1
  25   13   14 1
  26   13   35 1
  27   13   36 1
  28   14   37 1
  29   14   38 1
  30   15   16 am
  31   15   39 1
  32   16   17 1
  33   16   23 2
  34   17   18 ar
  35   17   22 ar
  36   18   19 ar
  37   18   25 1
  38   19   20 ar
  39   19   40 1
  40   20   21 ar
  41   20   41 1
  42   21   22 ar
  43   21   42 1
  44   22   24 1

#	End of record

