#	Name: ASD03091497
#	Creating user name:	WinNT
#	Creation time:	15. 06. 2019 20:30

#	Modifying user name:	WinNT
#	Modification time:	15. 06. 2019 20:30

#	Program:	/corina/corina34_cracker 3.40 0067  02.08.2006

@<TRIPOS>MOLECULE
ASD03091497
  39   42    0    0    0
SMALL
NO_CHARGES


@<TRIPOS>ATOM
   1 N1            -0.0091     1.3372    -0.0437 N.pl3   
   2 C2             0.0139    -0.0186    -0.0544 C.2     
   3 C3             1.1494    -0.7207     0.2203 C.2     
   4 C4             2.3843     0.0187     0.5277 C.2     
   5 C5             2.3771     1.4614     0.2505 C.ar    
   6 C6             3.5473     2.2325     0.2616 C.ar    
   7 N7             3.4815     3.5296    -0.0014 N.ar    
   8 C8             2.3382     4.1338    -0.2772 C.ar    
   9 C9             1.1439     3.4482    -0.3057 C.ar    
  10 C10            1.1447     2.0795    -0.0363 C.ar    
  11 N11            4.7663     1.6420     0.5465 N.pl3   
  12 C12            5.9450     2.3855     0.4398 C.ar    
  13 C13            6.9973     2.1513     1.3159 C.ar    
  14 C14            8.1612     2.8884     1.2076 C.ar    
  15 C15            8.2783     3.8592     0.2277 C.ar    
  16 C16            7.2322     4.0940    -0.6452 C.ar    
  17 C17            6.0687     3.3563    -0.5459 C.ar    
  18 Cl18           9.4773     2.5971     2.3015 Cl      
  19 O19            3.3655    -0.5390     0.9904 O.2     
  20 C20            1.1406    -2.2035     0.2100 C.ar    
  21 C21            0.9019    -2.8933    -0.9775 C.ar    
  22 C22            0.8953    -4.2731    -0.9818 C.ar    
  23 C23            1.1252    -4.9725     0.1907 C.ar    
  24 C24            1.3628    -4.2922     1.3728 C.ar    
  25 C25            1.3768    -2.9124     1.3868 C.ar    
  26 Cl26           1.1149    -6.7084     0.1787 Cl      
  27 H27           -0.8645     1.7947    -0.0455 H       
  28 H28           -0.8929    -0.5572    -0.2867 H       
  29 H29            2.3407     5.1936    -0.4854 H       
  30 H30            0.2216     3.9621    -0.5326 H       
  31 H31            4.8026     0.7121     0.8201 H       
  32 H32            6.9058     1.3944     2.0808 H       
  33 H33            9.1885     4.4347     0.1453 H       
  34 H34            7.3266     4.8523    -1.4083 H       
  35 H35            5.2538     3.5374    -1.2312 H       
  36 H36            0.7221    -2.3487    -1.8927 H       
  37 H37            0.7101    -4.8085    -1.9013 H       
  38 H38            1.5412    -4.8424     2.2849 H       
  39 H39            1.5666    -2.3827     2.3086 H       
@<TRIPOS>BOND
   1    1    2 1
   2    1   10 1
   3    1   27 1
   4    2    3 2
   5    2   28 1
   6    3    4 1
   7    3   20 1
   8    4    5 1
   9    4   19 2
  10    5    6 ar
  11    5   10 ar
  12    6    7 ar
  13    6   11 1
  14    7    8 ar
  15    8    9 ar
  16    8   29 1
  17    9   10 ar
  18    9   30 1
  19   11   12 1
  20   11   31 1
  21   12   13 ar
  22   12   17 ar
  23   13   14 ar
  24   13   32 1
  25   14   15 ar
  26   14   18 1
  27   15   16 ar
  28   15   33 1
  29   16   17 ar
  30   16   34 1
  31   17   35 1
  32   20   21 ar
  33   20   25 ar
  34   21   22 ar
  35   21   36 1
  36   22   23 ar
  37   22   37 1
  38   23   24 ar
  39   23   26 1
  40   24   25 ar
  41   24   38 1
  42   25   39 1

#	End of record

