#	Name: ASD01040033
#	Creating user name:	WinNT
#	Creation time:	15. 06. 2019 18:58

#	Modifying user name:	WinNT
#	Modification time:	15. 06. 2019 18:58

#	Program:	/corina/corina34_cracker 3.40 0067  02.08.2006

@<TRIPOS>MOLECULE
ASD01040033
  47   50    0    0    0
SMALL
NO_CHARGES


@<TRIPOS>ATOM
   1 C1            -0.0186     1.5228     0.0104 C.3     
   2 C2            -0.7682     2.1064    -1.1782 C.3     
   3 C3            -0.3207     1.5339    -2.5155 C.3     
   4 C4            -0.3015     0.0069    -2.5260 C.3     
   5 C5            -1.7012    -0.5792    -2.3600 C.3     
   6 C6            -2.3147    -0.2631    -1.0041 C.3     
   7 C7            -1.3989    -0.5886     0.1665 C.3     
   8 C8             0.0021    -0.0041     0.0020 C.3     
   9 C9             0.5396    -0.4544    -1.3465 C.2     
  10 C10            1.6472    -1.1869    -1.4829 C.2     
  11 C11            2.1091    -1.5882    -2.8338 C.ar    
  12 C12            2.4155    -1.5994    -0.2839 C.ar    
  13 C13            1.3320    -2.4431    -3.6136 C.ar    
  14 C14            1.7667    -2.8127    -4.8702 C.ar    
  15 C15            2.9711    -2.3365    -5.3562 C.ar    
  16 C16            3.7467    -1.4882    -4.5865 C.ar    
  17 C17            3.3194    -1.1073    -3.3308 C.ar    
  18 C18            2.5173    -2.9492     0.0505 C.ar    
  19 C19            3.2326    -3.3295     1.1663 C.ar    
  20 C20            3.8511    -2.3700     1.9566 C.ar    
  21 C21            3.7513    -1.0250     1.6266 C.ar    
  22 C22            3.0427    -0.6387     0.5086 C.ar    
  23 O23            4.5552    -2.7479     3.0554 O.3     
  24 H24            1.0127     1.8969     0.0026 H       
  25 H25           -0.4891     1.8716     0.9378 H       
  26 H26           -1.8369     2.0540    -1.0507 H       
  27 H27           -0.5330     3.1941    -1.2014 H       
  28 H28           -0.9973     1.8909    -3.3016 H       
  29 H29            0.6831     1.9092    -2.7480 H       
  30 H30            0.1503    -0.3563    -3.4633 H       
  31 H31           -2.3531    -0.1845    -3.1493 H       
  32 H32           -1.6533    -1.6681    -2.4866 H       
  33 H33           -2.6958     0.7439    -0.9549 H       
  34 H34           -3.2109    -0.9153    -0.8995 H       
  35 H35           -1.8456    -0.1979     1.0894 H       
  36 H36           -1.3253    -1.6778     0.2719 H       
  37 H37            0.6610    -0.3759     0.8032 H       
  38 H38            0.3916    -2.8157    -3.2351 H       
  39 H39            1.1655    -3.4753    -5.4752 H       
  40 H40            3.3073    -2.6284    -6.3401 H       
  41 H41            4.6864    -1.1198    -4.9708 H       
  42 H42            3.9234    -0.4411    -2.7327 H       
  43 H43            2.0361    -3.6960    -0.5636 H       
  44 H44            3.3115    -4.3748     1.4260 H       
  45 H45            4.2332    -0.2810     2.2435 H       
  46 H46            2.9656     0.4076     0.2522 H       
  47 H47            5.4901    -2.9240     2.8821 H       
@<TRIPOS>BOND
   1    1    8 1
   2    1   24 1
   3    1   25 1
   4    1    2 1
   5    2    3 1
   6    2   26 1
   7    2   27 1
   8    3    4 1
   9    3   28 1
  10    3   29 1
  11    4    9 1
  12    4    5 1
  13    4   30 1
  14    5   31 1
  15    5   32 1
  16    5    6 1
  17    6   33 1
  18    6   34 1
  19    6    7 1
  20    7   35 1
  21    7   36 1
  22    7    8 1
  23    8    9 1
  24    8   37 1
  25    9   10 2
  26   10   12 1
  27   10   11 1
  28   11   17 ar
  29   11   13 ar
  30   12   18 ar
  31   12   22 ar
  32   13   14 ar
  33   13   38 1
  34   14   15 ar
  35   14   39 1
  36   15   16 ar
  37   15   40 1
  38   16   41 1
  39   16   17 ar
  40   17   42 1
  41   18   19 ar
  42   18   43 1
  43   19   44 1
  44   19   20 ar
  45   20   23 1
  46   20   21 ar
  47   21   45 1
  48   21   22 ar
  49   22   46 1
  50   23   47 1

#	End of record

