#	Name: ASD01690001
#	Creating user name:	WinNT
#	Creation time:	15. 06. 2019 19:22

#	Modifying user name:	WinNT
#	Modification time:	15. 06. 2019 19:22

#	Program:	/corina/corina34_cracker 3.40 0067  02.08.2006

@<TRIPOS>MOLECULE
ASD01690001
  82   83    0    0    0
SMALL
NO_CHARGES


@<TRIPOS>ATOM
   1 N1             0.2485     1.4038     0.3418 N.am    
   2 C2             1.5561     2.0706     0.3723 C.3     
   3 C3             2.5454     1.1952     1.0995 C.2     
   4 O4             2.3071     0.0207     1.2857 O.2     
   5 C5             2.0411     2.3092    -1.0591 C.3     
   6 C6             1.1015     3.2934    -1.7585 C.3     
   7 C7             1.5865     3.5321    -3.1899 C.3     
   8 N8             0.6867     4.4745    -3.8596 N.pl3   
   9 C9             0.9234     4.8428    -5.1629 C.2     
  10 N10            2.0044     4.3268    -5.8376 N.pl3   
  11 N11            0.1229     5.6813    -5.7588 N.2     
  12 N12            3.7173     1.7458     1.5464 N.am    
  13 C13            4.5880     0.8070     2.3027 C.3     
  14 C14            3.6921    -0.1679     3.0255 C.2     
  15 O15            2.4948     0.0174     3.0809 O.2     
  16 N16            4.2539    -1.2612     3.6157 N.am    
  17 C17            3.3156    -2.1659     4.3113 C.3     
  18 C18            2.1438    -2.4452     3.4062 C.2     
  19 O19            2.2663    -2.3839     2.2011 O.2     
  20 C20            4.0254    -3.4782     4.6500 C.3     
  21 C21            5.1288    -3.2113     5.6411 C.2     
  22 O22            5.8913    -4.2228     6.0852 O.3     
  23 O23            5.3271    -2.0867     6.0361 O.2     
  24 N24            0.9377    -2.7701     3.9686 N.am    
  25 C25           -0.1436    -3.0279     2.9836 C.3     
  26 C26           -0.3666    -1.7709     2.1783 C.2     
  27 O27           -0.0048    -0.6896     2.5916 O.2     
  28 C28            0.2708    -4.1686     2.0520 C.3     
  29 C29            0.6791    -5.3645     2.8731 C.ar    
  30 C30            1.9947    -5.5132     3.2707 C.ar    
  31 C31           -0.2629    -6.3099     3.2333 C.ar    
  32 C32            2.3693    -6.6102     4.0239 C.ar    
  33 C33            0.1117    -7.4069     3.9864 C.ar    
  34 C34            1.4282    -7.5583     4.3797 C.ar    
  35 N35           -0.9892    -1.8919     0.9679 N.am    
  36 C36           -1.1426    -0.6387     0.2017 C.3     
  37 C37            0.1894     0.0677     0.1537 C.2     
  38 O38            1.2046    -0.5627    -0.0532 O.2     
  39 C39           -1.6039    -0.9607    -1.2212 C.3     
  40 C40           -1.9235     0.3401    -1.9604 C.3     
  41 C41           -0.4922    -1.7078    -1.9608 C.3     
  42 C42           -1.4722    -3.1797     0.4635 C.3     
  43 H43           -0.5656     1.9178     0.4598 H       
  44 H44            1.4657     3.0254     0.8902 H       
  45 H45            3.0494     2.7228    -1.0369 H       
  46 H46            2.0478     1.3645    -1.6027 H       
  47 H47            0.0932     2.8799    -1.7807 H       
  48 H48            1.0948     4.2382    -1.2149 H       
  49 H49            2.5947     3.9456    -3.1677 H       
  50 H50            1.5932     2.5873    -3.7335 H       
  51 H51           -0.0760     4.8385    -3.3836 H       
  52 H52            2.6002     3.7028    -5.3942 H       
  53 H53            2.1714     4.5867    -6.7571 H       
  54 H54            0.2899     5.9412    -6.6783 H       
  55 H55            3.9591     2.6709     1.3831 H       
  56 H56            5.2387     0.2695     1.6129 H       
  57 H57            5.1895     1.3606     3.0238 H       
  58 H58            5.2078    -1.4340     3.5809 H       
  59 H59            2.9639    -1.6923     5.2279 H       
  60 H60            3.3097    -4.1773     5.0827 H       
  61 H61            4.4488    -3.9072     3.7418 H       
  62 H62            6.5866    -4.0025     6.7202 H       
  63 H63            0.8016    -2.8269     4.9274 H       
  64 H64           -1.0602    -3.2979     3.5081 H       
  65 H65           -0.5689    -4.4375     1.4111 H       
  66 H66            1.1102    -3.8475     1.4354 H       
  67 H67            2.7299    -4.7726     2.9928 H       
  68 H68           -1.2916    -6.1912     2.9266 H       
  69 H69            3.3972    -6.7268     4.3340 H       
  70 H70           -0.6244    -8.1453     4.2681 H       
  71 H71            1.7210    -8.4155     4.9678 H       
  72 H72           -1.8779     0.0007     0.6903 H       
  73 H73           -2.4967    -1.5847    -1.1812 H       
  74 H74           -1.0307     0.9641    -2.0004 H       
  75 H75           -2.2521     0.1107    -2.9741 H       
  76 H76           -2.7154     0.8723    -1.4335 H       
  77 H77           -0.2793    -2.6447    -1.4461 H       
  78 H78           -0.8126    -1.9185    -2.9811 H       
  79 H79            0.4072    -1.0924    -1.9822 H       
  80 H80           -1.8597    -3.7723     1.2922 H       
  81 H81           -2.2657    -3.0103    -0.2643 H       
  82 H82           -0.6505    -3.7147    -0.0127 H       
@<TRIPOS>BOND
   1    1   37 am
   2    1    2 1
   3    1   43 1
   4    2    3 1
   5    2    5 1
   6    2   44 1
   7    3    4 2
   8    3   12 am
   9    5    6 1
  10    5   45 1
  11    5   46 1
  12    6    7 1
  13    6   47 1
  14    6   48 1
  15    7    8 1
  16    7   49 1
  17    7   50 1
  18    8    9 1
  19    8   51 1
  20    9   10 1
  21    9   11 2
  22   10   52 1
  23   10   53 1
  24   11   54 1
  25   12   13 1
  26   12   55 1
  27   13   14 1
  28   13   56 1
  29   13   57 1
  30   14   15 2
  31   14   16 am
  32   16   17 1
  33   16   58 1
  34   17   18 1
  35   17   20 1
  36   17   59 1
  37   18   24 am
  38   18   19 2
  39   20   21 1
  40   20   60 1
  41   20   61 1
  42   21   22 1
  43   21   23 2
  44   22   62 1
  45   24   25 1
  46   24   63 1
  47   25   28 1
  48   25   26 1
  49   25   64 1
  50   26   35 am
  51   26   27 2
  52   28   29 1
  53   28   65 1
  54   28   66 1
  55   29   31 ar
  56   29   30 ar
  57   30   32 ar
  58   30   67 1
  59   31   33 ar
  60   31   68 1
  61   32   34 ar
  62   32   69 1
  63   33   34 ar
  64   33   70 1
  65   34   71 1
  66   35   36 1
  67   35   42 1
  68   36   37 1
  69   36   39 1
  70   36   72 1
  71   37   38 2
  72   39   40 1
  73   39   41 1
  74   39   73 1
  75   40   74 1
  76   40   75 1
  77   40   76 1
  78   41   77 1
  79   41   78 1
  80   41   79 1
  81   42   80 1
  82   42   81 1
  83   42   82 1

#	End of record

