#	Name: ASD01883743
#	Creating user name:	WinNT
#	Creation time:	15. 06. 2019 19:47

#	Modifying user name:	WinNT
#	Modification time:	15. 06. 2019 19:47

#	Program:	/corina/corina34_cracker 3.40 0067  02.08.2006

@<TRIPOS>MOLECULE
ASD01883743
  51   54    0    0    0
SMALL
NO_CHARGES


@<TRIPOS>ATOM
   1 C1            -0.3879     0.7580    -1.0877 C.2     
   2 C2             0.0021    -0.0041     0.0020 C.2     
   3 C3            -0.8459    -0.0688     1.1283 C.2     
   4 C4            -2.0139     0.6066     1.1274 C.2     
   5 N5            -2.3889     1.3521     0.0538 N.am    
   6 C6            -1.6061     1.4438    -1.0371 C.2     
   7 C7            -3.6641     2.0725     0.0875 C.3     
   8 C8            -3.4442     3.4721     0.6650 C.3     
   9 O9            -1.9646     2.1198    -1.9892 O.2     
  10 Cl10           0.6248     0.8660    -2.4936 Cl      
  11 N11            1.2035    -0.6910    -0.0141 N.pl3   
  12 C12            1.4150    -2.1544     0.0779 C.3     
  13 C13            2.6594    -2.3125     0.9779 C.3     
  14 C14            3.4209    -0.9775     0.8427 C.3     
  15 C15            2.5695    -0.1301    -0.1336 C.3     
  16 C16            2.7976    -1.3780     2.1814 C.3     
  17 C17           -4.7760     4.2244     0.7002 C.3     
  18 C18           -4.5560     5.6240     1.2778 C.3     
  19 H19            3.1757    -3.2724     0.9656 H       
  20 H20            4.5042    -0.9430     0.7266 H       
  21 C21            3.7477    -1.8065     3.3014 C.3     
  22 O22            3.6590    -0.8768     4.3830 O.3     
  23 C23            4.4450    -1.1137     5.4664 C.ar    
  24 C24            4.4093    -0.2508     6.5532 C.ar    
  25 C25            5.2093    -0.4941     7.6543 C.ar    
  26 C26            6.0444    -1.5955     7.6735 C.ar    
  27 C27            6.0818    -2.4572     6.5912 C.ar    
  28 C28            5.2797    -2.2210     5.4901 C.ar    
  29 Cl29           3.3613     1.1329     6.5297 Cl      
  30 Cl30           7.1318    -3.8394     6.6190 Cl      
  31 H31           -0.5610    -0.6573     1.9879 H       
  32 H32           -2.6601     0.5541     1.9912 H       
  33 H33           -4.0615     2.1552    -0.9241 H       
  34 H34           -4.3723     1.5286     0.7126 H       
  35 H35           -3.0468     3.3894     1.6766 H       
  36 H36           -2.7361     4.0160     0.0398 H       
  37 H37            0.5508    -2.6352     0.5363 H       
  38 H38            1.6047    -2.5739    -0.9101 H       
  39 H39            2.9424    -0.2351    -1.1525 H       
  40 H40            2.5750     0.9173     0.1680 H       
  41 H41            1.9072    -0.8375     2.5026 H       
  42 H42           -5.1734     4.3071    -0.3114 H       
  43 H43           -5.4841     3.6805     1.3254 H       
  44 H44           -4.1587     5.5413     2.2894 H       
  45 H45           -3.8479     6.1679     0.6526 H       
  46 H46           -5.5049     6.1599     1.3028 H       
  47 H47            3.4703    -2.8003     3.6528 H       
  48 H48            4.7697    -1.8271     2.9229 H       
  49 H49            5.1821     0.1771     8.4999 H       
  50 H50            6.6688    -1.7837     8.5344 H       
  51 H51            5.3090    -2.8939     4.6458 H       
@<TRIPOS>BOND
   1    1    2 2
   2    1   10 1
   3    1    6 1
   4    2    3 1
   5    2   11 1
   6    3    4 2
   7    3   31 1
   8    4    5 1
   9    4   32 1
  10    5    6 am
  11    5    7 1
  12    6    9 2
  13    7    8 1
  14    7   33 1
  15    7   34 1
  16    8   17 1
  17    8   35 1
  18    8   36 1
  19   11   12 1
  20   11   15 1
  21   12   13 1
  22   12   37 1
  23   12   38 1
  24   13   14 1
  25   13   19 1
  26   13   16 1
  27   14   15 1
  28   14   20 1
  29   14   16 1
  30   15   39 1
  31   15   40 1
  32   16   21 1
  33   16   41 1
  34   17   18 1
  35   17   42 1
  36   17   43 1
  37   18   44 1
  38   18   45 1
  39   18   46 1
  40   21   22 1
  41   21   47 1
  42   21   48 1
  43   22   23 1
  44   23   24 ar
  45   23   28 ar
  46   24   25 ar
  47   24   29 1
  48   25   26 ar
  49   25   49 1
  50   26   27 ar
  51   26   50 1
  52   27   28 ar
  53   27   30 1
  54   28   51 1

#	End of record

