#	Name: ASD09740270
#	Creating user name:	WinNT
#	Creation time:	15. 06. 2019 21:23

#	Modifying user name:	WinNT
#	Modification time:	15. 06. 2019 21:23

#	Program:	/corina/corina34_cracker 3.40 0067  02.08.2006

@<TRIPOS>MOLECULE
ASD09740270
  33   35    0    0    0
SMALL
NO_CHARGES


@<TRIPOS>ATOM
   1 N1            -0.0144     1.2085     0.0087 N.2     
   2 O2             0.0021    -0.0041     0.0020 O.3     
   3 C3             1.2061     1.6798    -0.0004 C.2     
   4 N4             2.0457     0.6235    -0.0141 N.2     
   5 C5             1.2698    -0.4440    -0.0125 C.2     
   6 C6             1.7125    -1.8545    -0.0243 C.ar    
   7 C7             1.5955     3.1123     0.0028 C.ar    
   8 C8             0.7708    -2.8847    -0.0208 C.ar    
   9 C9             1.1906    -4.1988    -0.0318 C.ar    
  10 C10            2.5417    -4.4966    -0.0463 C.ar    
  11 C11            3.4803    -3.4801    -0.0493 C.ar    
  12 C12            3.0738    -2.1617    -0.0447 C.ar    
  13 C13            0.6160     4.1029     0.0172 C.ar    
  14 C14            0.9836     5.4333     0.0201 C.ar    
  15 C15            2.3216     5.7838     0.0083 C.ar    
  16 C16            3.2981     4.8043    -0.0065 C.ar    
  17 C17            2.9417     3.4708    -0.0028 C.ar    
  18 C18            4.9498    -3.8137    -0.0646 C.3     
  19 F19            5.3925    -3.9098    -1.3882 F       
  20 F20            5.6635    -2.8067     0.5939 F       
  21 F21            5.1576    -5.0345     0.5864 F       
  22 C22            0.1753    -5.3124    -0.0276 C.3     
  23 F23           -1.1135    -4.7684    -0.0120 F       
  24 F24            0.3371    -6.0954    -1.1756 F       
  25 F25            0.3597    -6.1073     1.1088 F       
  26 H26           -0.2841    -2.6536    -0.0092 H       
  27 H27            2.8650    -5.5270    -0.0548 H       
  28 H28            3.8075    -1.3692    -0.0471 H       
  29 H29           -0.4290     3.8303     0.0257 H       
  30 H30            0.2251     6.2021     0.0313 H       
  31 H31            2.6048     6.8260     0.0102 H       
  32 H32            4.3414     5.0834    -0.0160 H       
  33 H33            3.7050     2.7068    -0.0140 H       
@<TRIPOS>BOND
   1    1    2 1
   2    1    3 2
   3    2    5 1
   4    3    4 1
   5    3    7 1
   6    4    5 2
   7    5    6 1
   8    6    8 ar
   9    6   12 ar
  10    7   13 ar
  11    7   17 ar
  12    8    9 ar
  13    8   26 1
  14    9   10 ar
  15    9   22 1
  16   10   11 ar
  17   10   27 1
  18   11   12 ar
  19   11   18 1
  20   12   28 1
  21   13   14 ar
  22   13   29 1
  23   14   15 ar
  24   14   30 1
  25   15   16 ar
  26   15   31 1
  27   16   17 ar
  28   16   32 1
  29   17   33 1
  30   18   19 1
  31   18   20 1
  32   18   21 1
  33   22   23 1
  34   22   24 1
  35   22   25 1

#	End of record

