#	Name: ASD00960178
#	Creating user name:	WinNT
#	Creation time:	15. 06. 2019 18:53

#	Modifying user name:	WinNT
#	Modification time:	15. 06. 2019 18:53

#	Program:	/corina/corina34_cracker 3.40 0067  02.08.2006

@<TRIPOS>MOLECULE
ASD00960178
  32   34    0    0    0
SMALL
NO_CHARGES


@<TRIPOS>ATOM
   1 C1            -0.0168     1.3884     0.0097 C.2     
   2 C2             0.0021    -0.0041     0.0020 C.2     
   3 N3             1.2753     1.8331    -0.0003 N.pl3   
   4 C4             2.1090     0.7449    -0.0141 C.2     
   5 C5             1.3258    -0.4035    -0.0128 C.2     
   6 N6             1.8454     3.1136     0.0007 N.2     
   7 C7             3.1464     3.2512    -0.0113 C.2     
   8 N8             3.9673     2.2043    -0.0252 N.2     
   9 C9             3.5076     0.9653    -0.0255 C.2     
  10 N10            4.3820    -0.1030    -0.0398 N.pl3   
  11 Cl11           3.8228     4.8500    -0.0097 Cl      
  12 C12           -1.2119     2.2288     0.0201 C.2     
  13 O13           -2.3157     1.7169     0.0232 O.2     
  14 O14           -1.0916     3.5729     0.0263 O.3     
  15 C15           -2.3019     4.3326     0.0364 C.3     
  16 C16           -1.9720     5.8030     0.0422 C.ar    
  17 C17           -1.8268     6.4835    -1.1523 C.ar    
  18 C18           -1.5242     7.8323    -1.1470 C.ar    
  19 C19           -1.3671     8.5007     0.0528 C.ar    
  20 C20           -1.5131     7.8204     1.2473 C.ar    
  21 C21           -1.8200     6.4726     1.2420 C.ar    
  22 H22           -0.8605    -0.6539     0.0068 H       
  23 H23            1.6855    -1.4218    -0.0217 H       
  24 H24            5.3392     0.0537    -0.0496 H       
  25 H25            4.0391    -1.0104    -0.0399 H       
  26 H26           -2.8874     4.0951    -0.8518 H       
  27 H27           -2.8782     4.0860     0.9282 H       
  28 H28           -1.9496     5.9613    -2.0896 H       
  29 H29           -1.4101     8.3638    -2.0802 H       
  30 H30           -1.1299     9.5544     0.0569 H       
  31 H31           -1.3900     8.3426     2.1846 H       
  32 H32           -1.9378     5.9419     2.1752 H       
@<TRIPOS>BOND
   1    1    2 2
   2    1    3 1
   3    1   12 1
   4    2    5 1
   5    2   22 1
   6    3    4 1
   7    3    6 1
   8    4    5 2
   9    4    9 1
  10    5   23 1
  11    6    7 2
  12    7    8 1
  13    7   11 1
  14    8    9 2
  15    9   10 1
  16   10   24 1
  17   10   25 1
  18   12   13 2
  19   12   14 1
  20   14   15 1
  21   15   16 1
  22   15   26 1
  23   15   27 1
  24   16   17 ar
  25   16   21 ar
  26   17   18 ar
  27   17   28 1
  28   18   19 ar
  29   18   29 1
  30   19   20 ar
  31   19   30 1
  32   20   21 ar
  33   20   31 1
  34   21   32 1

#	End of record

