#	Name: ASD01028686
#	Creating user name:	WinNT
#	Creation time:	15. 06. 2019 18:57

#	Modifying user name:	WinNT
#	Modification time:	15. 06. 2019 18:57

#	Program:	/corina/corina34_cracker 3.40 0067  02.08.2006

@<TRIPOS>MOLECULE
ASD01028686
  33   35    0    0    0
SMALL
NO_CHARGES


@<TRIPOS>ATOM
   1 C1            -0.0184     1.5028     0.0103 C.2     
   2 C2            -0.0039     0.0042     0.1684 C.3     
   3 N3             2.4525    -2.3292    -4.3171 N.ar    
   4 C4             3.7447    -2.5480    -4.3414 C.ar    
   5 C5             4.5649    -2.2161    -3.2650 C.ar    
   6 C6             4.0254    -1.6466    -2.1471 C.ar    
   7 C7             2.6373    -1.4127    -2.1247 C.ar    
   8 C8             2.0117    -0.8311    -1.0106 C.ar    
   9 C9             0.6665    -0.6207    -1.0279 C.ar    
  10 C10           -0.0984    -0.9760    -2.1368 C.ar    
  11 C11            0.4753    -1.5423    -3.2335 C.ar    
  12 C12            1.8614    -1.7750    -3.2538 C.ar    
  13 F13            0.7009    -0.3356     1.3282 F       
  14 F14           -1.3174    -0.4672     0.2660 F       
  15 C15            1.2513     2.2559    -0.0034 C.ar    
  16 C16            1.8049     2.7039     1.1987 C.ar    
  17 C17            2.9985     3.4102     1.1681 C.ar    
  18 C18            3.5975     3.6444    -0.0599 C.ar    
  19 C19            2.9930     3.1709    -1.2135 C.ar    
  20 N20            1.8620     2.4980    -1.1583 N.ar    
  21 F21            1.1866     2.4534     2.3735 F       
  22 Cl22           3.7407     3.4627    -2.7528 Cl      
  23 N23           -1.1428     2.1285    -0.1187 N.2     
  24 O24           -1.1653     3.5439    -0.1551 O.3     
  25 H25            4.1853    -2.9977    -5.2189 H       
  26 H26            5.6263    -2.4093    -3.3146 H       
  27 H27            4.6463    -1.3834    -1.3035 H       
  28 H28            2.5941    -0.5518    -0.1450 H       
  29 H29           -1.1638    -0.7995    -2.1259 H       
  30 H30           -0.1322    -1.8121    -4.0847 H       
  31 H31            3.4508     3.7697     2.0805 H       
  32 H32            4.5269     4.1915    -0.1171 H       
  33 H33           -2.0503     3.9208    -0.2538 H       
@<TRIPOS>BOND
   1    1    2 1
   2    1   15 1
   3    1   23 2
   4    2    9 1
   5    2   13 1
   6    2   14 1
   7    3    4 ar
   8    3   12 ar
   9    4    5 ar
  10    4   25 1
  11    5    6 ar
  12    5   26 1
  13    6    7 ar
  14    6   27 1
  15    7    8 ar
  16    7   12 ar
  17    8    9 ar
  18    8   28 1
  19    9   10 ar
  20   10   11 ar
  21   10   29 1
  22   11   12 ar
  23   11   30 1
  24   15   16 ar
  25   15   20 ar
  26   16   17 ar
  27   16   21 1
  28   17   18 ar
  29   17   31 1
  30   18   19 ar
  31   18   32 1
  32   19   20 ar
  33   19   22 1
  34   23   24 1
  35   24   33 1

#	End of record

