#	Name: ASD08178128
#	Creating user name:	WinNT
#	Creation time:	15. 06. 2019 21:18

#	Modifying user name:	WinNT
#	Modification time:	15. 06. 2019 21:18

#	Program:	/corina/corina34_cracker 3.40 0067  02.08.2006

@<TRIPOS>MOLECULE
ASD08178128
  92   95    0    0    0
SMALL
NO_CHARGES


@<TRIPOS>ATOM
   1 C1            -0.3536     3.7979     0.0384 C.2     
   2 C2            -0.5102     2.3317     0.3495 C.3     
   3 C3            -0.5895     2.1375     1.8650 C.3     
   4 C4            -0.7485     0.6489     2.1808 C.3     
   5 C5            -0.8278     0.4547     3.6964 C.3     
   6 C6            -0.9844    -1.0116     4.0074 C.2     
   7 N7            -0.0237    -1.8571     4.2068 N.2     
   8 N8            -0.3617    -3.0478     4.4554 N.2     
   9 C9            -1.6314    -3.3196     4.4894 C.2     
  10 S10           -2.5092    -1.8830     4.1728 S.3     
  11 N11           -2.1864    -4.5688     4.7459 N.am    
  12 N12            0.7659     4.4387    -0.0784 N.2     
  13 C13           -1.3853    -5.6253     4.9876 C.2     
  14 O14           -0.1804    -5.4868     4.9813 O.2     
  15 C15           -1.9866    -6.9789     5.2655 C.3     
  16 C16           -0.8846    -7.9794     5.5010 C.ar    
  17 N17            0.6866     5.6705    -0.3435 N.2     
  18 C18           -0.4992     6.1839    -0.4750 C.2     
  19 S19           -1.6619     4.9480    -0.2395 S.3     
  20 C20            0.6539    -9.6082     4.6498 C.ar    
  21 C21           -0.4028    -8.1871     6.7786 C.ar    
  22 C22            0.6124    -9.1096     6.9949 C.ar    
  23 C23            1.1400    -9.8205     5.9251 C.ar    
  24 C24           -0.3607    -8.6928     4.4385 C.ar    
  25 N25            1.1031    -9.3220     8.2882 N.am    
  26 N26           -0.7786     7.5152    -0.7647 N.am    
  27 C27            0.2292     8.3938    -0.9345 C.2     
  28 O28            1.3798     8.0234    -0.8347 O.2     
  29 C29           -0.0736     9.8363    -1.2484 C.3     
  30 C30            1.2171    10.6014    -1.3888 C.ar    
  31 C31            1.8297    10.7016    -2.6245 C.ar    
  32 C32            3.0138    11.4032    -2.7576 C.ar    
  33 C33            3.5888    12.0058    -1.6559 C.ar    
  34 C34            2.9761    11.9070    -0.4136 C.ar    
  35 C35            1.7840    11.2066    -0.2843 C.ar    
  36 N36            3.5561    12.5166     0.7048 N.am    
  37 C37            4.2378    13.6709     0.5654 C.2     
  38 O38            4.8833    14.2031     1.6204 O.3     
  39 C39            1.5344   -10.5457     8.6528 C.2     
  40 O40            1.4084   -11.4856     7.8930 O.2     
  41 O41            2.1049   -10.7268     9.8590 O.3     
  42 C42            2.5458   -12.0714    10.1845 C.3     
  43 C43            3.5900   -12.5269     9.1632 C.3     
  44 C44            3.1634   -12.0808    11.5842 C.3     
  45 C45            1.3485   -13.0234    10.1489 C.3     
  46 O46            4.2698    14.2312    -0.5123 O.2     
  47 C47            5.5969    15.4478     1.3972 C.3     
  48 C48            4.6130    16.5233     0.9320 C.3     
  49 C49            6.2625    15.8949     2.7003 C.3     
  50 C50            6.6669    15.2369     0.3242 C.3     
  51 H51           -1.4236     1.9577    -0.1130 H       
  52 H52            0.3464     1.7835    -0.0427 H       
  53 H53            0.3239     2.5115     2.3275 H       
  54 H54           -1.4462     2.6856     2.2572 H       
  55 H55           -1.6619     0.2749     1.7183 H       
  56 H56            0.1081     0.1007     1.7886 H       
  57 H57            0.0856     0.8287     4.1589 H       
  58 H58           -1.6845     1.0028     4.0886 H       
  59 H59           -3.1500    -4.6796     4.7509 H       
  60 H60           -2.6196    -6.9204     6.1510 H       
  61 H61           -2.5858    -7.2928     4.4108 H       
  62 H62            1.0610   -10.1638     3.8180 H       
  63 H63           -0.8150    -7.6324     7.6086 H       
  64 H64            1.9294   -10.5389     6.0901 H       
  65 H65           -0.7391    -8.5286     3.4404 H       
  66 H66            1.1327    -8.5885     8.9223 H       
  67 H67           -1.6989     7.8114    -0.8445 H       
  68 H68           -0.6342     9.8952    -2.1812 H       
  69 H69           -0.6654    10.2673    -0.4409 H       
  70 H70            1.3825    10.2306    -3.4874 H       
  71 H71            3.4898    11.4796    -3.7241 H       
  72 H72            4.5140    12.5530    -1.7603 H       
  73 H73            1.3049    11.1283     0.6804 H       
  74 H74            3.4675    12.1083     1.5802 H       
  75 H75            4.4430   -11.8488     9.1885 H       
  76 H76            3.9210   -13.5363     9.4076 H       
  77 H77            3.1500   -12.5203     8.1660 H       
  78 H78            2.4194   -11.7563    12.3118 H       
  79 H79            3.4944   -13.0902    11.8286 H       
  80 H80            4.0164   -11.4026    11.6096 H       
  81 H81            0.9085   -13.0167     9.1517 H       
  82 H82            1.6795   -14.0327    10.3932 H       
  83 H83            0.6046   -12.6988    10.8764 H       
  84 H84            3.8507    16.6735     1.6964 H       
  85 H85            5.1487    17.4577     0.7644 H       
  86 H86            4.1389    16.2048     0.0036 H       
  87 H87            6.9634    15.1287     3.0317 H       
  88 H88            6.7981    16.8293     2.5327 H       
  89 H89            5.5001    16.0451     3.4647 H       
  90 H90            6.1927    14.9185    -0.6042 H       
  91 H91            7.2025    16.1713     0.1566 H       
  92 H92            7.3678    14.4708     0.6556 H       
@<TRIPOS>BOND
   1    1    2 1
   2    1   12 2
   3    1   19 1
   4    2    3 1
   5    2   51 1
   6    2   52 1
   7    3    4 1
   8    3   53 1
   9    3   54 1
  10    4    5 1
  11    4   55 1
  12    4   56 1
  13    5    6 1
  14    5   57 1
  15    5   58 1
  16    6    7 2
  17    6   10 1
  18    7    8 1
  19    8    9 2
  20    9   10 1
  21    9   11 1
  22   11   13 am
  23   11   59 1
  24   12   17 1
  25   13   14 2
  26   13   15 1
  27   15   16 1
  28   15   60 1
  29   15   61 1
  30   16   21 ar
  31   16   24 ar
  32   17   18 2
  33   18   19 1
  34   18   26 1
  35   20   24 ar
  36   20   23 ar
  37   20   62 1
  38   21   22 ar
  39   21   63 1
  40   22   23 ar
  41   22   25 1
  42   23   64 1
  43   24   65 1
  44   25   39 am
  45   25   66 1
  46   26   27 am
  47   26   67 1
  48   27   28 2
  49   27   29 1
  50   29   30 1
  51   29   68 1
  52   29   69 1
  53   30   31 ar
  54   30   35 ar
  55   31   32 ar
  56   31   70 1
  57   32   33 ar
  58   32   71 1
  59   33   34 ar
  60   33   72 1
  61   34   35 ar
  62   34   36 1
  63   35   73 1
  64   36   37 am
  65   36   74 1
  66   37   38 1
  67   37   46 2
  68   38   47 1
  69   39   40 2
  70   39   41 1
  71   41   42 1
  72   42   43 1
  73   42   44 1
  74   42   45 1
  75   43   75 1
  76   43   76 1
  77   43   77 1
  78   44   78 1
  79   44   79 1
  80   44   80 1
  81   45   81 1
  82   45   82 1
  83   45   83 1
  84   47   48 1
  85   47   49 1
  86   47   50 1
  87   48   84 1
  88   48   85 1
  89   48   86 1
  90   49   87 1
  91   49   88 1
  92   49   89 1
  93   50   90 1
  94   50   91 1
  95   50   92 1

#	End of record

