#	Name: ASD01230220
#	Creating user name:	WinNT
#	Creation time:	15. 06. 2019 19:12

#	Modifying user name:	WinNT
#	Modification time:	15. 06. 2019 19:12

#	Program:	/corina/corina34_cracker 3.40 0067  02.08.2006

@<TRIPOS>MOLECULE
ASD01230220
  42   45    0    0    0
SMALL
NO_CHARGES


@<TRIPOS>ATOM
   1 S1             0.2992     1.5787     0.6959 S.o2    
   2 N2             0.1978    -0.0495     0.4194 N.am    
   3 C3             1.1269    -0.7081    -0.2300 C.2     
   4 N4             2.2664    -0.1650    -0.7515 N.pl3   
   5 C5             2.5831     1.2651    -0.7136 C.3     
   6 C6             2.0900     1.8913     0.5940 C.3     
   7 C7             0.8949    -2.1589    -0.3954 C.2     
   8 C8             1.8481    -2.9222    -1.0337 C.2     
   9 C9             3.0099    -2.2994    -1.5104 C.2     
  10 C10            3.1912    -0.9761    -1.3614 C.2     
  11 C11           -0.3452    -2.7834     0.1185 C.ar    
  12 C12           -0.2801    -3.7208     1.1502 C.ar    
  13 C13           -1.4363    -4.3006     1.6267 C.ar    
  14 C14           -2.6663    -3.9528     1.0801 C.ar    
  15 C15           -2.7341    -3.0192     0.0522 C.ar    
  16 C16           -1.5818    -2.4315    -0.4240 C.ar    
  17 N17           -3.8359    -4.5425     1.5642 N.3     
  18 C18           -3.7550    -4.7589     3.0204 C.3     
  19 C19           -4.9556    -4.0290     3.6585 C.3     
  20 C20           -5.9622    -3.9183     2.4832 C.3     
  21 C21           -5.0137    -3.6956     1.2788 C.3     
  22 O22           -0.3795     2.1710    -0.4030 O.2     
  23 O23           -0.1668     1.7449     2.0280 O.2     
  24 H24            3.6625     1.3963    -0.7905 H       
  25 H25            2.1004     1.7625    -1.5548 H       
  26 H26            2.2800     2.9646     0.5867 H       
  27 H27            2.5966     1.4292     1.4414 H       
  28 H28            1.7024    -3.9843    -1.1644 H       
  29 H29            3.7682    -2.8898    -2.0032 H       
  30 H30            4.1016    -0.5326    -1.7367 H       
  31 H31            0.6752    -3.9919     1.5748 H       
  32 H32           -1.3866    -5.0261     2.4252 H       
  33 H33           -3.6910    -2.7509    -0.3706 H       
  34 H34           -1.6355    -1.7028    -1.2193 H       
  35 H35           -3.8096    -5.8251     3.2404 H       
  36 H36           -2.8226    -4.3459     3.4054 H       
  37 H37           -5.3769    -4.6188     4.4725 H       
  38 H38           -4.6627    -3.0395     4.0096 H       
  39 H39           -6.5302    -4.8413     2.3674 H       
  40 H40           -6.6281    -3.0661     2.6184 H       
  41 H41           -4.7210    -2.6476     1.2150 H       
  42 H42           -5.4943    -4.0133     0.3535 H       
@<TRIPOS>BOND
   1    1    2 am
   2    1    6 1
   3    1   22 2
   4    1   23 2
   5    2    3 2
   6    3    4 1
   7    3    7 1
   8    4    5 1
   9    4   10 1
  10    5    6 1
  11    5   24 1
  12    5   25 1
  13    6   26 1
  14    6   27 1
  15    7    8 2
  16    7   11 1
  17    8    9 1
  18    8   28 1
  19    9   10 2
  20    9   29 1
  21   10   30 1
  22   11   12 ar
  23   11   16 ar
  24   12   13 ar
  25   12   31 1
  26   13   14 ar
  27   13   32 1
  28   14   15 ar
  29   14   17 1
  30   15   16 ar
  31   15   33 1
  32   16   34 1
  33   17   18 1
  34   17   21 1
  35   18   19 1
  36   18   35 1
  37   18   36 1
  38   19   20 1
  39   19   37 1
  40   19   38 1
  41   20   21 1
  42   20   39 1
  43   20   40 1
  44   21   41 1
  45   21   42 1

#	End of record

