#	Name: ASD02560111
#	Creating user name:	WinNT
#	Creation time:	15. 06. 2019 20:24

#	Modifying user name:	WinNT
#	Modification time:	15. 06. 2019 20:24

#	Program:	/corina/corina34_cracker 3.40 0067  02.08.2006

@<TRIPOS>MOLECULE
ASD02560111
  56   59    0    0    0
SMALL
NO_CHARGES


@<TRIPOS>ATOM
   1 N1             0.1622     1.3266    -0.1055 N.2     
   2 N2             0.2404     0.1049     0.0570 N.2     
   3 C3             1.4942     1.9438    -0.1447 C.3     
   4 N4             2.4290     0.8124    -0.3702 N.3     
   5 C5             1.6399    -0.3292     0.1577 C.3     
   6 S6             2.0778    -0.6534     1.8879 S.3     
   7 C7             1.6629     0.9077     2.7133 C.3     
   8 C8             1.9751     0.7971     4.1835 C.2     
   9 O9             2.4324    -0.2335     4.6304 O.2     
  10 N10            1.7461     1.8433     5.0016 N.am    
  11 C11            3.6054     0.9844     0.3561 C.ar    
  12 C12            1.9461     1.7111     6.3754 C.ar    
  13 C13            1.1903     2.4718     7.2640 C.ar    
  14 C14            1.3857     2.3433     8.6213 C.ar    
  15 C15            2.3441     1.4479     9.1060 C.ar    
  16 C16            3.1005     0.6864     8.2107 C.ar    
  17 C17            2.8962     0.8156     6.8552 C.ar    
  18 Cl18           0.0013     3.5833     6.6603 Cl      
  19 C19            2.5567     1.3078    10.5585 C.2     
  20 O20            1.8987     1.9708    11.3356 O.2     
  21 O21            3.4807     0.4445    11.0240 O.3     
  22 C22            4.5269    -0.0774     0.4810 C.ar    
  23 C23            3.8828     2.1952     0.9546 C.ar    
  24 C24            5.0551     2.3773     1.6817 C.ar    
  25 C25            5.9591     1.3688     1.8222 C.ar    
  26 C26            5.7168     0.1206     1.2240 C.ar    
  27 C27            6.6320    -0.9386     1.3529 C.ar    
  28 C28            6.3656    -2.1347     0.7608 C.ar    
  29 C29            5.1970    -2.3270     0.0266 C.ar    
  30 C30            4.2865    -1.3247    -0.1160 C.ar    
  31 C31            7.2213     1.5927     2.6146 C.3     
  32 C32            1.5833     2.9462    -1.2971 C.3     
  33 F33            0.5941     3.9234    -1.1426 F       
  34 F34            2.8436     3.5534    -1.2906 F       
  35 F35            1.3935     2.2785    -2.5117 F       
  36 C36            8.3558     1.9860     1.6664 C.3     
  37 H37            1.7135     2.4340     0.8038 H       
  38 H38            1.8060    -1.2187    -0.4500 H       
  39 H39            2.2495     1.7163     2.2772 H       
  40 H40            0.6013     1.1172     2.5820 H       
  41 H41            1.4421     2.6883     4.6349 H       
  42 H42            0.7997     2.9336     9.3102 H       
  43 H43            3.8418    -0.0058     8.5820 H       
  44 H44            3.4805     0.2273     6.1633 H       
  45 H45            3.5841     0.3874    11.9838 H       
  46 H46            3.1824     3.0115     0.8576 H       
  47 H47            5.2514     3.3345     2.1418 H       
  48 H48            7.5421    -0.8037     1.9187 H       
  49 H49            7.0706    -2.9467     0.8610 H       
  50 H50            5.0093    -3.2859    -0.4334 H       
  51 H51            3.3849    -1.4878    -0.6879 H       
  52 H52            7.0591     2.3916     3.3382 H       
  53 H53            7.4881     0.6755     3.1397 H       
  54 H54            8.5180     1.1871     0.9428 H       
  55 H55            8.0889     2.9031     1.1413 H       
  56 H56            9.2687     2.1479     2.2395 H       
@<TRIPOS>BOND
   1    1    2 2
   2    1    3 1
   3    2    5 1
   4    3    4 1
   5    3   32 1
   6    3   37 1
   7    4    5 1
   8    4   11 1
   9    5    6 1
  10    5   38 1
  11    6    7 1
  12    7    8 1
  13    7   39 1
  14    7   40 1
  15    8    9 2
  16    8   10 am
  17   10   12 1
  18   10   41 1
  19   11   22 ar
  20   11   23 ar
  21   12   13 ar
  22   12   17 ar
  23   13   14 ar
  24   13   18 1
  25   14   15 ar
  26   14   42 1
  27   15   16 ar
  28   15   19 1
  29   16   17 ar
  30   16   43 1
  31   17   44 1
  32   19   20 2
  33   19   21 1
  34   21   45 1
  35   22   26 ar
  36   22   30 ar
  37   23   24 ar
  38   23   46 1
  39   24   25 ar
  40   24   47 1
  41   25   26 ar
  42   25   31 1
  43   26   27 ar
  44   27   28 ar
  45   27   48 1
  46   28   29 ar
  47   28   49 1
  48   29   30 ar
  49   29   50 1
  50   30   51 1
  51   31   36 1
  52   31   52 1
  53   31   53 1
  54   32   33 1
  55   32   34 1
  56   32   35 1
  57   36   54 1
  58   36   55 1
  59   36   56 1

#	End of record

