#	Name: ASD01914797
#	Creating user name:	WinNT
#	Creation time:	15. 06. 2019 20:04

#	Modifying user name:	WinNT
#	Modification time:	15. 06. 2019 20:04

#	Program:	/corina/corina34_cracker 3.40 0067  02.08.2006

@<TRIPOS>MOLECULE
ASD01914797
  28   29    0    0    0
SMALL
NO_CHARGES


@<TRIPOS>ATOM
   1 C1            -0.0225     1.8097     0.0120 C.3     
   2 S2             0.0021    -0.0041     0.0020 S.o2    
   3 C3             0.8752    -0.4400     1.4691 C.ar    
   4 N4             0.1974    -0.6145     2.5867 N.ar    
   5 N5             2.1844    -0.5864     1.4125 N.ar    
   6 C6             2.8795    -0.9131     2.4877 C.ar    
   7 C7             2.2026    -1.1037     3.6995 C.ar    
   8 C8             0.8109    -0.9423     3.7101 C.ar    
   9 C9             2.9121    -1.4584     4.8917 C.1     
  10 C10            3.4938    -1.7493     5.8691 C.1     
  11 C11            4.2033    -2.1040     7.0614 C.ar    
  12 C12            3.5114    -2.2901     8.2610 C.ar    
  13 C13            4.2014    -2.6321     9.4052 C.ar    
  14 C14            5.5756    -2.7906     9.3672 C.ar    
  15 C15            6.2675    -2.6079     8.1828 C.ar    
  16 C16            5.5902    -2.2714     7.0294 C.ar    
  17 O17           -1.3056    -0.5216     0.2056 O.2     
  18 O18            0.8248    -0.4858    -1.0517 O.2     
  19 H19            1.0001     2.1870     0.0043 H       
  20 H20           -0.5497     2.1708    -0.8711 H       
  21 H21           -0.5327     2.1613     0.9088 H       
  22 H22            3.9516    -1.0315     2.4333 H       
  23 H23            0.2492    -1.0798     4.6223 H       
  24 H24            2.4390    -2.1661     8.2923 H       
  25 H25            3.6680    -2.7763    10.3331 H       
  26 H26            6.1107    -3.0578    10.2664 H       
  27 H27            7.3400    -2.7329     8.1607 H       
  28 H28            6.1315    -2.1295     6.1057 H       
@<TRIPOS>BOND
   1    1    2 1
   2    1   19 1
   3    1   20 1
   4    1   21 1
   5    2    3 1
   6    2   17 2
   7    2   18 2
   8    3    4 ar
   9    3    5 ar
  10    4    8 ar
  11    5    6 ar
  12    6    7 ar
  13    6   22 1
  14    7    8 ar
  15    7    9 1
  16    8   23 1
  17    9   10 3
  18   10   11 1
  19   11   12 ar
  20   11   16 ar
  21   12   13 ar
  22   12   24 1
  23   13   14 ar
  24   13   25 1
  25   14   15 ar
  26   14   26 1
  27   15   16 ar
  28   15   27 1
  29   16   28 1

#	End of record

