#	Name: ASD01200371
#	Creating user name:	WinNT
#	Creation time:	15. 06. 2019 19:09

#	Modifying user name:	WinNT
#	Modification time:	15. 06. 2019 19:09

#	Program:	/corina/corina34_cracker 3.40 0067  02.08.2006

@<TRIPOS>MOLECULE
ASD01200371
  56   60    0    0    0
SMALL
NO_CHARGES


@<TRIPOS>ATOM
   1 C1            -0.2314     1.6901    -0.7020 C.ar    
   2 C2            -0.2580     0.3398    -1.0349 C.ar    
   3 C3             0.9400    -0.3791    -1.1697 C.ar    
   4 C4             2.1390     0.2335    -0.9770 C.ar    
   5 C5             2.1864     1.5949    -0.6411 C.ar    
   6 C6             0.9886     2.3242    -0.5038 C.ar    
   7 C7             3.2467     2.4955    -0.3830 C.2     
   8 N8             2.7445     3.6660    -0.1136 N.2     
   9 N9             1.3469     3.6078    -0.1753 N.pl3   
  10 C10            0.4278     4.7227     0.0664 C.3     
  11 C11            0.6259     5.2476     1.4898 C.3     
  12 C12            0.7076     5.8273    -0.9198 C.2     
  13 N13            0.1295     5.8063    -2.1371 N.am    
  14 O14            1.4531     6.7352    -0.6181 O.2     
  15 C15           -0.4293     6.3136     1.7918 C.3     
  16 C16           -2.8576     6.7249     2.1966 C.3     
  17 C17           -1.8179     5.6674     1.8166 C.3     
  18 C18           -0.1462     6.9419     3.1598 C.3     
  19 C19           -1.2504     7.9502     3.4879 C.3     
  20 O20           -2.5181     7.2909     3.4641 O.3     
  21 S21            3.6338    -0.6834    -1.1488 S.o2    
  22 O22            4.3514    -0.4111     0.0471 O.2     
  23 O23            3.2027    -2.0011    -1.4606 O.2     
  24 C24            4.4648     0.0687    -2.5751 C.3     
  25 C25            5.7583    -0.5854    -3.0649 C.3     
  26 C26            4.4739    -0.7218    -3.8851 C.3     
  27 C27            0.4657     6.7688    -3.0835 C.2     
  28 N28            1.3229     7.7274    -2.9098 N.2     
  29 S29           -0.1987     6.8763    -4.7114 S.3     
  30 C30            0.7989     8.2958    -5.0210 C.2     
  31 C31            1.5152     8.5504    -3.9237 C.2     
  32 F32            0.8358     9.0018    -6.1722 F       
  33 C33           -1.5124    -0.3195    -1.2406 C.1     
  34 N34           -2.5076    -0.8426    -1.4037 N.1     
  35 H35           -1.1536     2.2433    -0.6026 H       
  36 H36            0.9095    -1.4273    -1.4281 H       
  37 H37            4.2987     2.2522    -0.4055 H       
  38 H38           -0.5996     4.3793    -0.0545 H       
  39 H39            0.5244     4.4251     2.1978 H       
  40 H40            1.6202     5.6847     1.5808 H       
  41 H41           -0.5211     5.1200    -2.3533 H       
  42 H42           -0.3985     7.0853     1.0226 H       
  43 H43           -2.8714     7.5095     1.4401 H       
  44 H44           -3.8422     6.2612     2.2576 H       
  45 H45           -2.0505     5.2659     0.8303 H       
  46 H46           -1.8320     4.8623     2.5512 H       
  47 H47           -0.1264     6.1625     3.9215 H       
  48 H48            0.8168     7.4518     3.1340 H       
  49 H49           -1.0772     8.3692     4.4792 H       
  50 H50           -1.2431     8.7508     2.7483 H       
  51 H51            4.3929     1.1542    -2.6424 H       
  52 H52            6.5373     0.0698    -3.4548 H       
  53 H53            6.1100    -1.4677    -2.5300 H       
  54 H54            3.9806    -1.6937    -3.8898 H       
  55 H55            4.4080    -0.1563    -4.8146 H       
  56 H56            2.2088     9.3764    -3.8695 H       
@<TRIPOS>BOND
   1    1    2 ar
   2    1    6 ar
   3    1   35 1
   4    2    3 ar
   5    2   33 1
   6    3    4 ar
   7    3   36 1
   8    4    5 ar
   9    4   21 1
  10    5    7 1
  11    5    6 ar
  12    6    9 1
  13    7    8 2
  14    7   37 1
  15    8    9 1
  16    9   10 1
  17   10   11 1
  18   10   12 1
  19   10   38 1
  20   11   15 1
  21   11   39 1
  22   11   40 1
  23   12   13 am
  24   12   14 2
  25   13   27 1
  26   13   41 1
  27   15   18 1
  28   15   17 1
  29   15   42 1
  30   16   17 1
  31   16   20 1
  32   16   43 1
  33   16   44 1
  34   17   45 1
  35   17   46 1
  36   18   19 1
  37   18   47 1
  38   18   48 1
  39   19   20 1
  40   19   49 1
  41   19   50 1
  42   21   22 2
  43   21   23 2
  44   21   24 1
  45   24   25 1
  46   24   26 1
  47   24   51 1
  48   25   26 1
  49   25   52 1
  50   25   53 1
  51   26   54 1
  52   26   55 1
  53   27   29 1
  54   27   28 2
  55   28   31 1
  56   29   30 1
  57   30   31 2
  58   30   32 1
  59   31   56 1
  60   33   34 3

#	End of record

