#	Name: ASD01040021
#	Creating user name:	WinNT
#	Creation time:	15. 06. 2019 18:58

#	Modifying user name:	WinNT
#	Modification time:	15. 06. 2019 18:58

#	Program:	/corina/corina34_cracker 3.40 0067  02.08.2006

@<TRIPOS>MOLECULE
ASD01040021
  34   36    0    0    0
SMALL
NO_CHARGES


@<TRIPOS>ATOM
   1 O1            -0.2666     1.3288     0.4790 O.3     
   2 C2            -0.1998    -0.0249     0.3801 C.ar    
   3 C3             0.1743    -0.7819     1.4828 C.ar    
   4 C4             0.2436    -2.1553     1.3876 C.ar    
   5 C5            -0.0630    -2.7861     0.1800 C.ar    
   6 C6             0.0095    -4.2578     0.0736 C.2     
   7 C7            -0.9623    -5.0505    -0.4264 C.2     
   8 C8            -0.6700    -6.3943    -0.4245 C.2     
   9 C9            -1.6297    -7.4341    -0.9429 C.3     
  10 C10            0.5429    -6.7103     0.0771 C.2     
  11 C11            1.0886    -8.0788     0.1867 C.ar    
  12 C12            1.6433    -8.5175     1.3918 C.ar    
  13 Cl13           1.6923    -7.4555     2.7642 Cl      
  14 C14            2.1517    -9.7967     1.4892 C.ar    
  15 C15            2.1124   -10.6464     0.3923 C.ar    
  16 O16            2.6141   -11.9054     0.4923 O.3     
  17 C17            1.5614   -10.2140    -0.8070 C.ar    
  18 C18            1.0463    -8.9397    -0.9119 C.ar    
  19 S19            1.3779    -5.2437     0.5720 S.3     
  20 C20           -0.4389    -2.0212    -0.9272 C.ar    
  21 Cl21          -0.8215    -2.7983    -2.4317 Cl      
  22 C22           -0.5111    -0.6472    -0.8210 C.ar    
  23 H23            0.5604     1.7804     0.2615 H       
  24 H24            0.4116    -0.2937     2.4164 H       
  25 H25            0.5349    -2.7428     2.2457 H       
  26 H26           -1.8975    -4.6593    -0.7989 H       
  27 H27           -1.3887    -7.6658    -1.9804 H       
  28 H28           -1.5463    -8.3383    -0.3399 H       
  29 H29           -2.6482    -7.0504    -0.8834 H       
  30 H30            2.5811   -10.1370     2.4199 H       
  31 H31            1.9674   -12.5650     0.7784 H       
  32 H32            1.5326   -10.8788    -1.6576 H       
  33 H33            0.6141    -8.6063    -1.8438 H       
  34 H34           -0.8057    -0.0549    -1.6747 H       
@<TRIPOS>BOND
   1    1    2 1
   2    1   23 1
   3    2    3 ar
   4    2   22 ar
   5    3    4 ar
   6    3   24 1
   7    4   25 1
   8    4    5 ar
   9    5    6 1
  10    5   20 ar
  11    6    7 2
  12    6   19 1
  13    7    8 1
  14    7   26 1
  15    8   10 2
  16    8    9 1
  17    9   27 1
  18    9   28 1
  19    9   29 1
  20   10   11 1
  21   10   19 1
  22   11   12 ar
  23   11   18 ar
  24   12   14 ar
  25   12   13 1
  26   14   15 ar
  27   14   30 1
  28   15   17 ar
  29   15   16 1
  30   16   31 1
  31   17   32 1
  32   17   18 ar
  33   18   33 1
  34   20   21 1
  35   20   22 ar
  36   22   34 1

#	End of record

