#	Name: ASD08070140
#	Creating user name:	WinNT
#	Creation time:	15. 06. 2019 21:14

#	Modifying user name:	WinNT
#	Modification time:	15. 06. 2019 21:14

#	Program:	/corina/corina34_cracker 3.40 0067  02.08.2006

@<TRIPOS>MOLECULE
ASD08070140
  40   40    0    0    0
SMALL
NO_CHARGES


@<TRIPOS>ATOM
   1 C1            -0.0162     1.3456     0.0094 C.2     
   2 C2             0.0021    -0.0041     0.0020 C.2     
   3 C3            -1.2545    -0.7525     0.0100 C.2     
   4 O4            -2.3167    -0.1583     0.0233 O.2     
   5 N5            -1.2362    -2.1001     0.0026 N.am    
   6 C6            -2.4948    -2.8498     0.0106 C.3     
   7 C7            -2.2698    -4.2307    -0.6087 C.3     
   8 O8            -1.3768    -4.9826     0.2155 O.3     
   9 C9            -1.0984    -6.2952    -0.2759 C.3     
  10 C10           -2.9836    -3.0105     1.4515 C.3     
  11 C11           -3.3273    -1.6363     2.0297 C.3     
  12 C12            1.2467     2.0978     0.0014 C.ar    
  13 C13            1.2305     3.4974     0.0091 C.ar    
  14 C14            2.4696     1.4169    -0.0081 C.ar    
  15 C15            3.6495     2.1261    -0.0157 C.ar    
  16 C16            3.6278     3.5161    -0.0133 C.ar    
  17 C17            2.4159     4.1972     0.0015 C.ar    
  18 O18            4.7940     4.2107    -0.0203 O.3     
  19 C19            4.6998     5.6366    -0.0174 C.3     
  20 H20           -0.9588     1.8728     0.0168 H       
  21 H21            0.9446    -0.5313    -0.0098 H       
  22 H22           -0.3897    -2.5737    -0.0080 H       
  23 H23           -3.2433    -2.3094    -0.5689 H       
  24 H24           -3.2227    -4.7547    -0.6841 H       
  25 H25           -1.8380    -4.1171    -1.6030 H       
  26 H26           -2.0269    -6.8620    -0.3445 H       
  27 H27           -0.6422    -6.2244    -1.2633 H       
  28 H28           -0.4137    -6.8005     0.4052 H       
  29 H29           -3.8712    -3.6430     1.4657 H       
  30 H30           -2.1993    -3.4715     2.0519 H       
  31 H31           -3.6755    -1.7508     3.0562 H       
  32 H32           -2.4397    -1.0038     2.0155 H       
  33 H33           -4.1116    -1.1753     1.4292 H       
  34 H34            0.2895     4.0274     0.0206 H       
  35 H35            2.4875     0.3371    -0.0092 H       
  36 H36            4.5936     1.6017    -0.0230 H       
  37 H37            2.4045     5.2771     0.0029 H       
  38 H38            4.1570     5.9667    -0.9032 H       
  39 H39            4.1693     5.9639     0.8768 H       
  40 H40            5.7013     6.0669    -0.0237 H       
@<TRIPOS>BOND
   1    1    2 2
   2    1   12 1
   3    1   20 1
   4    2    3 1
   5    2   21 1
   6    3    4 2
   7    3    5 am
   8    5    6 1
   9    5   22 1
  10    6    7 1
  11    6   10 1
  12    6   23 1
  13    7    8 1
  14    7   24 1
  15    7   25 1
  16    8    9 1
  17    9   26 1
  18    9   27 1
  19    9   28 1
  20   10   11 1
  21   10   29 1
  22   10   30 1
  23   11   31 1
  24   11   32 1
  25   11   33 1
  26   12   13 ar
  27   12   14 ar
  28   13   17 ar
  29   13   34 1
  30   14   15 ar
  31   14   35 1
  32   15   16 ar
  33   15   36 1
  34   16   17 ar
  35   16   18 1
  36   17   37 1
  37   18   19 1
  38   19   38 1
  39   19   39 1
  40   19   40 1

#	End of record

