#	Name: ASD01148034
#	Creating user name:	WinNT
#	Creation time:	15. 06. 2019 19:01

#	Modifying user name:	WinNT
#	Modification time:	15. 06. 2019 19:01

#	Program:	/corina/corina34_cracker 3.40 0067  02.08.2006

@<TRIPOS>MOLECULE
ASD01148034
  39   39    0    0    0
SMALL
NO_CHARGES


@<TRIPOS>ATOM
   1 C1            -0.0184     1.5028     0.0103 C.2     
   2 C2             0.0021    -0.0041     0.0020 C.3     
   3 C3            -0.2550    -0.5098    -1.4189 C.3     
   4 O4             1.0236     2.1234     0.0037 O.2     
   5 N5            -1.1946     2.1607     0.0195 N.am    
   6 C6            -1.2145     3.6256     0.0275 C.3     
   7 C7            -2.6419     4.1085     0.0369 C.ar    
   8 C8            -3.2910     4.3235     1.2383 C.ar    
   9 C9            -4.6004     4.7665     1.2470 C.ar    
  10 C10           -5.2606     4.9949     0.0541 C.ar    
  11 C11           -4.6113     4.7808    -1.1473 C.ar    
  12 C12           -3.3005     4.3419    -1.1559 C.ar    
  13 C13           -6.6884     5.4769     0.0635 C.3     
  14 O14           -0.3515    -1.9355    -1.4069 O.3     
  15 C15           -0.5922    -2.5126    -2.6919 C.3     
  16 F16           -1.7975    -2.0216    -3.2052 F       
  17 F17            0.4544    -2.1769    -3.5574 F       
  18 N18            1.3109    -0.4772     0.4594 N.am    
  19 C19            2.4256    -0.1328    -0.2155 C.2     
  20 O20            2.3450     0.5689    -1.2014 O.2     
  21 C21            3.7720    -0.6195     0.2551 C.3     
  22 H22           -0.7738    -0.3816     0.6680 H       
  23 H23           -1.1871    -0.0857    -1.7924 H       
  24 H24            0.5674    -0.2067    -2.0668 H       
  25 H25           -2.0280     1.6644     0.0207 H       
  26 H26           -0.7014     3.9910     0.9171 H       
  27 H27           -0.7098     4.0007    -0.8628 H       
  28 H28           -2.7751     4.1451     2.1703 H       
  29 H29           -5.1077     4.9338     2.1856 H       
  30 H30           -5.1273     4.9589    -2.0792 H       
  31 H31           -2.7920     4.1782    -2.0945 H       
  32 H32           -6.7040     6.5668     0.0703 H       
  33 H33           -7.2010     5.1117    -0.8264 H       
  34 H34           -7.1930     5.1008     0.9535 H       
  35 H35           -0.6522    -3.5968    -2.5977 H       
  36 H36            1.3754    -1.0384     1.2480 H       
  37 H37            3.9994    -1.5741    -0.2194 H       
  38 H38            4.5360     0.1104    -0.0126 H       
  39 H39            3.7544    -0.7468     1.3375 H       
@<TRIPOS>BOND
   1    1    2 1
   2    1    4 2
   3    1    5 am
   4    2    3 1
   5    2   18 1
   6    2   22 1
   7    3   14 1
   8    3   23 1
   9    3   24 1
  10    5    6 1
  11    5   25 1
  12    6    7 1
  13    6   26 1
  14    6   27 1
  15    7    8 ar
  16    7   12 ar
  17    8    9 ar
  18    8   28 1
  19    9   10 ar
  20    9   29 1
  21   10   11 ar
  22   10   13 1
  23   11   12 ar
  24   11   30 1
  25   12   31 1
  26   13   32 1
  27   13   33 1
  28   13   34 1
  29   14   15 1
  30   15   16 1
  31   15   17 1
  32   15   35 1
  33   18   19 am
  34   18   36 1
  35   19   20 2
  36   19   21 1
  37   21   37 1
  38   21   38 1
  39   21   39 1

#	End of record

