#	Name: ASD01412102
#	Creating user name:	WinNT
#	Creation time:	15. 06. 2019 19:20

#	Modifying user name:	WinNT
#	Modification time:	15. 06. 2019 19:20

#	Program:	/corina/corina34_cracker 3.40 0067  02.08.2006

@<TRIPOS>MOLECULE
ASD01412102
  84   90    0    0    0
SMALL
NO_CHARGES


@<TRIPOS>ATOM
   1 C1             1.3269     3.8547    -2.6573 C.ar    
   2 C2             0.6867     2.5848    -2.6802 C.ar    
   3 C3            -0.5529     2.7594    -3.3194 C.2     
   4 C4            -0.6504     4.0618    -3.6661 C.2     
   5 N5             0.4867     4.7440    -3.2593 N.pl3   
   6 C6            -1.5840     1.6899    -3.5723 C.3     
   7 C7            -0.9735     0.5882    -4.4410 C.3     
   8 C8            -2.0203    -0.4976    -4.6979 C.3     
   9 C9            -2.4752    -1.0932    -3.3640 C.3     
  10 C10           -3.0857     0.0084    -2.4953 C.3     
  11 C11           -2.0389     1.0943    -2.2385 C.3     
  12 C12            2.5865     4.0040    -2.0922 C.ar    
  13 C13            3.1809     2.8559    -1.5554 C.ar    
  14 C14            2.5406     1.6116    -1.5804 C.ar    
  15 C15            1.2997     1.4468    -2.1316 C.ar    
  16 C16            4.5205     2.9604    -0.9465 C.2     
  17 N17            5.1105     1.8670    -0.4241 N.am    
  18 O18            5.0925     4.0330    -0.9160 O.2     
  19 C19            6.4862     1.9441     0.0736 C.3     
  20 C20            6.5724     2.9428     1.1989 C.2     
  21 C21            6.9500     0.5563     0.5621 C.3     
  22 C22            7.7090    -0.0388    -0.6499 C.3     
  23 C23            8.4457     1.1937    -1.2306 C.3     
  24 C24            7.4369     2.3507    -1.0659 C.3     
  25 N25            5.5728     3.0323     2.0985 N.am    
  26 O26            7.5412     3.6659     1.2950 O.2     
  27 C27            5.5819     4.0500     3.0522 C.ar    
  28 C28            5.0431     3.8222     4.3150 C.ar    
  29 C29            5.0504     4.8232     5.2592 C.ar    
  30 C30            5.6009     6.0723     4.9479 C.ar    
  31 C31            6.1419     6.2969     3.6761 C.ar    
  32 C32            6.1350     5.2883     2.7399 C.ar    
  33 C33            5.6106     7.1445     5.9526 C.2     
  34 C34            6.1424     8.3491     5.6500 C.2     
  35 C35            6.1517     9.3836     6.6195 C.2     
  36 O36            5.6808     9.1866     7.7237 O.2     
  37 O37            6.6828    10.5866     6.3172 O.3     
  38 C38           -1.7362     4.7602    -4.3821 C.ar    
  39 C39           -1.3752     5.6511    -5.4130 C.ar    
  40 O40           -0.0682     5.7357    -5.7473 O.3     
  41 C41            0.8511     6.4856    -4.9521 C.3     
  42 C42            0.6630     6.1825    -3.4705 C.3     
  43 C43           -3.0774     4.5748    -4.0740 C.ar    
  44 C44           -4.0152     5.3107    -4.7848 C.ar    
  45 C45           -3.5868     6.1948    -5.7576 C.ar    
  46 N46           -2.3052     6.3424    -6.0411 N.ar    
  47 H47           -2.4406     2.1254    -4.0867 H       
  48 H48           -0.6494     1.0125    -5.3913 H       
  49 H49           -0.1169     0.1527    -3.9266 H       
  50 H50           -2.8769    -0.0621    -5.2123 H       
  51 H51           -1.5854    -1.2825    -5.3167 H       
  52 H52           -3.2210    -1.8668    -3.5470 H       
  53 H53           -1.6186    -1.5288    -2.8496 H       
  54 H54           -3.9423     0.4440    -3.0097 H       
  55 H55           -3.4098    -0.4159    -1.5450 H       
  56 H56           -1.1822     0.6587    -1.7240 H       
  57 H57           -2.4738     1.8791    -1.6196 H       
  58 H58            3.0849     4.9619    -2.0682 H       
  59 H59            3.0414     0.7560    -1.1520 H       
  60 H60            0.8123     0.4831    -2.1441 H       
  61 H61            4.6242     1.0290    -0.3776 H       
  62 H62            7.6172     0.6565     1.4182 H       
  63 H63            6.0915    -0.0650     0.8170 H       
  64 H64            8.4215    -0.7971    -0.3251 H       
  65 H65            7.0107    -0.4503    -1.3788 H       
  66 H66            9.3544     1.3969    -0.6640 H       
  67 H67            8.6786     1.0377    -2.2839 H       
  68 H68            6.8748     2.4902    -1.9893 H       
  69 H69            7.9621     3.2696    -0.8054 H       
  70 H70            4.8470     2.3890     2.0827 H       
  71 H71            4.6184     2.8585     4.5541 H       
  72 H72            4.6317     4.6457     6.2388 H       
  73 H73            6.5673     7.2590     3.4315 H       
  74 H74            6.5524     5.4605     1.7588 H       
  75 H75            5.1926     6.9697     6.9330 H       
  76 H76            6.5604     8.5240     4.6697 H       
  77 H77            6.6435    11.2269     7.0409 H       
  78 H78            1.8695     6.2275    -5.2426 H       
  79 H79            0.6890     7.5496    -5.1248 H       
  80 H80           -0.2179     6.7094    -3.1038 H       
  81 H81            1.5390     6.5234    -2.9188 H       
  82 H82           -3.3814     3.8794    -3.3056 H       
  83 H83           -5.0691     5.1942    -4.5798 H       
  84 H84           -4.3171     6.7781    -6.2986 H       
@<TRIPOS>BOND
   1    1    2 ar
   2    1   12 ar
   3    1    5 1
   4    2    3 1
   5    2   15 ar
   6    3    4 2
   7    3    6 1
   8    4    5 1
   9    4   38 1
  10    5   42 1
  11    6    7 1
  12    6   11 1
  13    6   47 1
  14    7    8 1
  15    7   48 1
  16    7   49 1
  17    8    9 1
  18    8   50 1
  19    8   51 1
  20    9   10 1
  21    9   52 1
  22    9   53 1
  23   10   11 1
  24   10   54 1
  25   10   55 1
  26   11   56 1
  27   11   57 1
  28   12   13 ar
  29   12   58 1
  30   13   14 ar
  31   13   16 1
  32   14   15 ar
  33   14   59 1
  34   15   60 1
  35   16   17 am
  36   16   18 2
  37   17   19 1
  38   17   61 1
  39   19   20 1
  40   19   21 1
  41   19   24 1
  42   20   25 am
  43   20   26 2
  44   21   22 1
  45   21   62 1
  46   21   63 1
  47   22   23 1
  48   22   64 1
  49   22   65 1
  50   23   24 1
  51   23   66 1
  52   23   67 1
  53   24   68 1
  54   24   69 1
  55   25   27 1
  56   25   70 1
  57   27   28 ar
  58   27   32 ar
  59   28   29 ar
  60   28   71 1
  61   29   30 ar
  62   29   72 1
  63   30   31 ar
  64   30   33 1
  65   31   32 ar
  66   31   73 1
  67   32   74 1
  68   33   34 2
  69   33   75 1
  70   34   35 1
  71   34   76 1
  72   35   36 2
  73   35   37 1
  74   37   77 1
  75   38   39 ar
  76   38   43 ar
  77   39   40 1
  78   39   46 ar
  79   40   41 1
  80   41   42 1
  81   41   78 1
  82   41   79 1
  83   42   80 1
  84   42   81 1
  85   43   44 ar
  86   43   82 1
  87   44   45 ar
  88   44   83 1
  89   45   46 ar
  90   45   84 1

#	End of record

