#	Name: ASD01410883
#	Creating user name:	WinNT
#	Creation time:	15. 06. 2019 19:18

#	Modifying user name:	WinNT
#	Modification time:	15. 06. 2019 19:18

#	Program:	/corina/corina34_cracker 3.40 0067  02.08.2006

@<TRIPOS>MOLECULE
ASD01410883
  67   69    0    0    0
SMALL
NO_CHARGES


@<TRIPOS>ATOM
   1 C1             0.0893     1.3478    -0.7147 C.ar    
   2 C2            -0.9884    -0.8001    -0.6937 C.ar    
   3 C3            -2.2312    -0.1821    -0.6949 C.ar    
   4 C4            -2.3129     1.2188    -0.6942 C.ar    
   5 C5            -1.1411     1.9792    -0.7103 C.ar    
   6 O6             1.2303     2.0873    -0.7246 O.3     
   7 C7             2.0116     2.0380    -1.8326 C.ar    
   8 N8            -3.3943    -0.9505    -0.6852 N.am    
   9 C9            -4.1161    -1.0662     0.4471 C.2     
  10 C10           -5.3017    -1.9954     0.4933 C.3     
  11 O11           -3.8115    -0.4226     1.4289 O.2     
  12 C12           -5.5912    -2.3810     1.9454 C.3     
  13 C13           -7.7275    -2.2359    -0.0542 C.3     
  14 C14           -8.0170    -2.6215     1.3978 C.3     
  15 C15           -6.7949    -3.3243     1.9923 C.3     
  16 C16           -9.2207    -3.5648     1.4447 C.3     
  17 N17            1.5964     1.3728    -2.8981 N.ar    
  18 C18            3.2374     2.6912    -1.8395 C.ar    
  19 C19            4.0248     2.6336    -2.9764 C.ar    
  20 C20            3.5556     1.9211    -4.0712 C.ar    
  21 C21            2.3244     1.3001    -3.9959 C.ar    
  22 C22           -6.5239    -1.2926    -0.1011 C.3     
  23 C23            0.1635    -0.0399    -0.7034 C.ar    
  24 C24           -3.8321    -1.6322    -1.9058 C.3     
  25 C25           -3.9704    -0.6123    -3.0379 C.3     
  26 C26           -2.7995    -2.6913    -2.2967 C.3     
  27 C27           -2.6913    -3.7339    -1.1822 C.3     
  28 O28           -5.0491     0.2787    -2.7472 O.3     
  29 C29           -5.2645     1.2763    -3.7475 C.3     
  30 C30            3.7036     3.4529    -0.6256 C.3     
  31 F31            4.9582     4.0163    -0.8820 F       
  32 F32            2.7875     4.4687    -0.3322 F       
  33 F33            3.7979     2.5809     0.4643 F       
  34 C34           -3.6280     1.8843    -0.6960 C.2     
  35 O35           -4.6416     1.2273    -0.5636 O.2     
  36 O36           -3.7063     3.2214    -0.8443 O.3     
  37 H37           -0.9227    -1.8781    -0.6942 H       
  38 H38           -1.1960     3.0577    -0.7188 H       
  39 H39           -5.0823    -2.8933    -0.0842 H       
  40 H40           -4.7205    -2.8816     2.3688 H       
  41 H41           -5.8106    -1.4830     2.5229 H       
  42 H42           -7.5081    -3.1339    -0.6318 H       
  43 H43           -8.5982    -1.7353    -0.4777 H       
  44 H44           -8.2364    -1.7235     1.9754 H       
  45 H45           -6.5755    -4.2223     1.4147 H       
  46 H46           -7.0011    -3.5990     3.0267 H       
  47 H47           -9.0013    -4.4628     0.8672 H       
  48 H48           -9.4269    -3.8396     2.4792 H       
  49 H49          -10.0914    -3.0642     1.0213 H       
  50 H50            4.9823     3.1320    -3.0110 H       
  51 H51            4.1451     1.8566    -4.9738 H       
  52 H52            1.9549     0.7442    -4.8449 H       
  53 H53           -6.7433    -0.3946     0.4765 H       
  54 H54           -6.3176    -1.0179    -1.1355 H       
  55 H55            1.1278    -0.5262    -0.7024 H       
  56 H56           -4.7950    -2.1114    -1.7289 H       
  57 H57           -3.0447    -0.0443    -3.1302 H       
  58 H58           -4.1717    -1.1335    -3.9738 H       
  59 H59           -3.1106    -3.1784    -3.2209 H       
  60 H60           -1.8299    -2.2161    -2.4451 H       
  61 H61           -2.4933    -3.2334    -0.2344 H       
  62 H62           -3.6268    -4.2888    -1.1116 H       
  63 H63           -1.8766    -4.4224    -1.4066 H       
  64 H64           -4.3657     1.8835    -3.8545 H       
  65 H65           -5.4927     0.7943    -4.6981 H       
  66 H66           -6.0995     1.9120    -3.4527 H       
  67 H67           -4.5906     3.6126    -0.8390 H       
@<TRIPOS>BOND
   1    1   23 ar
   2    1    6 1
   3    1    5 ar
   4    2    3 ar
   5    2   23 ar
   6    2   37 1
   7    3    4 ar
   8    3    8 1
   9    4    5 ar
  10    4   34 1
  11    5   38 1
  12    6    7 1
  13    7   18 ar
  14    7   17 ar
  15    8    9 am
  16    8   24 1
  17    9   11 2
  18    9   10 1
  19   10   12 1
  20   10   22 1
  21   10   39 1
  22   12   15 1
  23   12   40 1
  24   12   41 1
  25   13   14 1
  26   13   22 1
  27   13   42 1
  28   13   43 1
  29   14   15 1
  30   14   16 1
  31   14   44 1
  32   15   45 1
  33   15   46 1
  34   16   47 1
  35   16   48 1
  36   16   49 1
  37   17   21 ar
  38   18   19 ar
  39   18   30 1
  40   19   20 ar
  41   19   50 1
  42   20   21 ar
  43   20   51 1
  44   21   52 1
  45   22   53 1
  46   22   54 1
  47   23   55 1
  48   24   25 1
  49   24   26 1
  50   24   56 1
  51   25   28 1
  52   25   57 1
  53   25   58 1
  54   26   27 1
  55   26   59 1
  56   26   60 1
  57   27   61 1
  58   27   62 1
  59   27   63 1
  60   28   29 1
  61   29   64 1
  62   29   65 1
  63   29   66 1
  64   30   31 1
  65   30   32 1
  66   30   33 1
  67   34   35 2
  68   34   36 1
  69   36   67 1

#	End of record

