#	Name: ASD00460002
#	Creating user name:	WinNT
#	Creation time:	15. 06. 2019 18:36

#	Modifying user name:	WinNT
#	Modification time:	15. 06. 2019 18:36

#	Program:	/corina/corina34_cracker 3.40 0067  02.08.2006

@<TRIPOS>MOLECULE
ASD00460002
  43   44    0    0    0
SMALL
NO_CHARGES


@<TRIPOS>ATOM
   1 C1            -0.0167     1.3777     0.0096 C.ar    
   2 C2             0.0021    -0.0041     0.0020 C.ar    
   3 C3             1.2098    -0.6793    -0.0131 C.ar    
   4 C4             2.3977     0.0294    -0.0206 C.ar    
   5 C5             2.3777     1.4116    -0.0130 C.ar    
   6 C6             1.1710     2.0855     0.0021 C.ar    
   7 Cl7            1.2342    -2.4151    -0.0221 Cl      
   8 C8             3.7135    -0.7051    -0.0366 C.3     
   9 C9             4.0841    -1.0563    -1.4789 C.3     
  10 C10            5.4199    -1.8021    -1.4952 C.3     
  11 N11            5.7757    -2.1392    -2.8800 N.3     
  12 C12            7.0558    -2.8578    -2.9346 C.3     
  13 C13            7.1057    -3.7008    -4.1827 C.ar    
  14 C14            7.6515    -4.9689    -4.1376 C.ar    
  15 C15            7.6968    -5.7447    -5.2870 C.ar    
  16 C16            7.1936    -5.2445    -6.4789 C.ar    
  17 C17            6.6487    -3.9754    -6.5188 C.ar    
  18 C18            6.5999    -3.2064    -5.3710 C.ar    
  19 O19            8.2336    -6.9925    -5.2452 O.3     
  20 C20            8.2469    -7.7343    -6.4666 C.3     
  21 C21            8.2063    -1.8494    -2.9538 C.3     
  22 H22           -0.9593     1.9048     0.0169 H       
  23 H23           -0.9257    -0.5569     0.0082 H       
  24 H24            3.3051     1.9651    -0.0189 H       
  25 H25            1.1559     3.1654     0.0080 H       
  26 H26            4.4888    -0.0712     0.3937 H       
  27 H27            3.6258    -1.6202     0.5491 H       
  28 H28            3.3088    -1.6902    -1.9092 H       
  29 H29            4.1717    -0.1412    -2.0646 H       
  30 H30            6.1952    -1.1682    -1.0649 H       
  31 H31            5.3322    -2.7172    -0.9095 H       
  32 H32            5.0423    -2.6728    -3.3221 H       
  33 H33            7.1498    -3.4996    -2.0586 H       
  34 H34            8.0429    -5.3560    -3.2084 H       
  35 H35            7.2280    -5.8463    -7.3750 H       
  36 H36            6.2568    -3.5855    -7.4466 H       
  37 H37            6.1736    -2.2147    -5.4043 H       
  38 H38            7.2251    -7.8668    -6.8223 H       
  39 H39            8.8246    -7.1917    -7.2149 H       
  40 H40            8.7010    -8.7100    -6.2941 H       
  41 H41            8.1123    -1.2076    -3.8298 H       
  42 H42            8.1701    -1.2397    -2.0511 H       
  43 H43            9.1561    -2.3826    -2.9944 H       
@<TRIPOS>BOND
   1    1    2 ar
   2    1    6 ar
   3    1   22 1
   4    2    3 ar
   5    2   23 1
   6    3    4 ar
   7    3    7 1
   8    4    5 ar
   9    4    8 1
  10    5    6 ar
  11    5   24 1
  12    6   25 1
  13    8    9 1
  14    8   26 1
  15    8   27 1
  16    9   10 1
  17    9   28 1
  18    9   29 1
  19   10   11 1
  20   10   30 1
  21   10   31 1
  22   11   12 1
  23   11   32 1
  24   12   13 1
  25   12   21 1
  26   12   33 1
  27   13   14 ar
  28   13   18 ar
  29   14   15 ar
  30   14   34 1
  31   15   16 ar
  32   15   19 1
  33   16   17 ar
  34   16   35 1
  35   17   18 ar
  36   17   36 1
  37   18   37 1
  38   19   20 1
  39   20   38 1
  40   20   39 1
  41   20   40 1
  42   21   41 1
  43   21   42 1
  44   21   43 1

#	End of record

