#	Name: ASD05490211
#	Creating user name:	WinNT
#	Creation time:	15. 06. 2019 21:01

#	Modifying user name:	WinNT
#	Modification time:	15. 06. 2019 21:01

#	Program:	/corina/corina34_cracker 3.40 0067  02.08.2006

@<TRIPOS>MOLECULE
ASD05490211
  72   77    0    0    0
SMALL
NO_CHARGES


@<TRIPOS>ATOM
   1 N1            -0.0159     1.3208     0.0093 N.ar    
   2 C2             0.0021    -0.0041     0.0020 C.ar    
   3 C3             1.1987    -0.7015    -0.0132 C.ar    
   4 C4             2.3925     0.0113    -0.0207 C.ar    
   5 C5             2.3390     1.4074    -0.0127 C.ar    
   6 C6             1.0996     2.0376     0.0025 C.ar    
   7 O7            -1.1704    -0.6885     0.0100 O.3     
   8 N8             1.0295     3.4275     0.0106 N.pl3   
   9 C9            -2.3725     0.0841     0.0261 C.3     
  10 C10           -3.5813    -0.8537     0.0331 C.3     
  11 C11           -4.8663    -0.0322     0.1760 C.3     
  12 N12            3.7329    -0.3423    -0.0354 N.am    
  13 C13            4.4718     0.7840    -0.0364 C.2     
  14 N14            3.6596     1.8589    -0.0229 N.am    
  15 O15            5.6880     0.8245    -0.0472 O.2     
  16 C16            4.2573    -1.7101    -0.0478 C.3     
  17 C17            4.4235    -2.1715    -1.4727 C.ar    
  18 C18            5.6194    -1.9531    -2.1327 C.ar    
  19 C19            3.3817    -2.8170    -2.1140 C.ar    
  20 C20            3.5286    -3.2421    -3.4189 C.ar    
  21 C21            4.7292    -3.0200    -4.0902 C.ar    
  22 C22            5.7772    -2.3740    -3.4376 C.ar    
  23 C23           -6.0735    -0.9708     0.1030 C.3     
  24 C24            4.8931    -3.4747    -5.4932 C.ar    
  25 C25            6.0936    -3.2565    -6.1748 C.ar    
  26 C26            3.8549    -4.1312    -6.1502 C.ar    
  27 N27            3.9992    -4.5358    -7.3957 N.ar    
  28 C28            5.1179    -4.3393    -8.0662 C.ar    
  29 C29            6.1962    -3.6998    -7.4820 C.ar    
  30 N30            5.6293    -6.2368    -9.4955 N.3     
  31 C31            5.5152    -6.8127   -10.8480 C.3     
  32 C32            7.0257    -6.3902    -9.0347 C.3     
  33 C33            7.5815    -7.5857    -9.8481 C.3     
  34 C34            6.9040    -7.3687   -11.2268 C.3     
  35 C35            5.2249    -4.8245    -9.4889 C.3     
  36 O36           -6.0429    -1.6888    -1.1322 O.3     
  37 C37           -4.8865    -2.5114    -1.3004 C.3     
  38 C38           -3.6316    -1.6347    -1.2837 C.3     
  39 H39            1.2044    -1.7815    -0.0187 H       
  40 H40            1.8441     3.9542     0.0057 H       
  41 H41            0.1662     3.8696     0.0213 H       
  42 H42           -2.3914     0.7080     0.9197 H       
  43 H43           -2.4091     0.7175    -0.8602 H       
  44 H44           -3.4984    -1.5493     0.8682 H       
  45 H45           -4.8637     0.4839     1.1361 H       
  46 H46           -4.9234     0.6982    -0.6310 H       
  47 H47            3.9436     2.7863    -0.0206 H       
  48 H48            5.2232    -1.7335     0.4567 H       
  49 H49            3.5613    -2.3708     0.4692 H       
  50 H50            6.4309    -1.4520    -1.6260 H       
  51 H51            2.4516    -2.9889    -1.5926 H       
  52 H52            2.7147    -3.7462    -3.9185 H       
  53 H53            6.7098    -2.1990    -3.9534 H       
  54 H54           -6.0371    -1.6753     0.9339 H       
  55 H55           -6.9920    -0.3868     0.1612 H       
  56 H56            6.9200    -2.7544    -5.6939 H       
  57 H57            2.9234    -4.3103    -5.6339 H       
  58 H58            7.1070    -3.5442    -8.0412 H       
  59 H59            4.7809    -7.6183   -10.8472 H       
  60 H60            5.2195    -6.0392   -11.5567 H       
  61 H61            7.5973    -5.4871    -9.2487 H       
  62 H62            7.0510    -6.6126    -7.9679 H       
  63 H63            8.6667    -7.5292    -9.9331 H       
  64 H64            7.2748    -8.5342    -9.4073 H       
  65 H65            6.8081    -8.3134   -11.7620 H       
  66 H66            7.4608    -6.6433   -11.8199 H       
  67 H67            4.2582    -4.7211    -9.9818 H       
  68 H68            5.9690    -4.2311   -10.0202 H       
  69 H69           -4.8346    -3.2360    -0.4878 H       
  70 H70           -4.9499    -3.0372    -2.2531 H       
  71 H71           -3.6637    -0.9367    -2.1202 H       
  72 H72           -2.7460    -2.2647    -1.3676 H       
@<TRIPOS>BOND
   1    1    2 ar
   2    1    6 ar
   3    2    3 ar
   4    2    7 1
   5    3    4 ar
   6    3   39 1
   7    4    5 ar
   8    4   12 1
   9    5    6 ar
  10    5   14 1
  11    6    8 1
  12    7    9 1
  13    8   40 1
  14    8   41 1
  15    9   10 1
  16    9   42 1
  17    9   43 1
  18   10   11 1
  19   10   38 1
  20   10   44 1
  21   11   23 1
  22   11   45 1
  23   11   46 1
  24   12   13 am
  25   12   16 1
  26   13   14 am
  27   13   15 2
  28   14   47 1
  29   16   17 1
  30   16   48 1
  31   16   49 1
  32   17   18 ar
  33   17   19 ar
  34   18   22 ar
  35   18   50 1
  36   19   20 ar
  37   19   51 1
  38   20   21 ar
  39   20   52 1
  40   21   22 ar
  41   21   24 1
  42   22   53 1
  43   23   36 1
  44   23   54 1
  45   23   55 1
  46   24   25 ar
  47   24   26 ar
  48   25   29 ar
  49   25   56 1
  50   26   27 ar
  51   26   57 1
  52   27   28 ar
  53   28   29 ar
  54   28   35 1
  55   29   58 1
  56   30   31 1
  57   30   32 1
  58   30   35 1
  59   31   34 1
  60   31   59 1
  61   31   60 1
  62   32   33 1
  63   32   61 1
  64   32   62 1
  65   33   34 1
  66   33   63 1
  67   33   64 1
  68   34   65 1
  69   34   66 1
  70   35   67 1
  71   35   68 1
  72   36   37 1
  73   37   38 1
  74   37   69 1
  75   37   70 1
  76   38   71 1
  77   38   72 1

#	End of record

