#	Name: ASD01680065
#	Creating user name:	WinNT
#	Creation time:	15. 06. 2019 19:22

#	Modifying user name:	WinNT
#	Modification time:	15. 06. 2019 19:22

#	Program:	/corina/corina34_cracker 3.40 0067  02.08.2006

@<TRIPOS>MOLECULE
ASD01680065
  90   92    0    0    0
SMALL
NO_CHARGES


@<TRIPOS>ATOM
   1 C1            -1.5074     1.1889    -0.5746 C.2     
   2 C2            -1.3117    -0.3032    -0.6538 C.3     
   3 C3            -1.8140    -0.8124    -2.0063 C.3     
   4 O4            -0.5552     1.9155    -0.4160 O.2     
   5 O5            -2.7389     1.7111    -0.6859 O.3     
   6 N6             0.1122    -0.6172    -0.5120 N.am    
   7 S7             0.7289    -1.0129     0.9731 S.o2    
   8 O8             2.1080    -1.2915     0.7736 O.2     
   9 O9             0.2589    -0.0242     1.8791 O.2     
  10 C10           -0.0200    -2.5313     1.4612 C.ar    
  11 C11           -1.0984    -2.5235     2.3259 C.ar    
  12 C12           -1.6859    -3.7148     2.7089 C.ar    
  13 C13           -1.1952    -4.9138     2.2267 C.ar    
  14 C14           -0.1174    -4.9215     1.3612 C.ar    
  15 C15            0.4674    -3.7300     0.9748 C.ar    
  16 C16            1.6391    -3.7381     0.0273 C.3     
  17 C17           -1.8351    -6.2125     2.6449 C.3     
  18 C18           -1.6333    -1.2164     2.8516 C.3     
  19 N19           -1.5156    -2.2412    -2.1316 N.am    
  20 C20           -1.8688    -2.9080    -3.2484 C.2     
  21 O21           -2.4337    -2.3252    -4.1495 O.2     
  22 C22           -1.5618    -4.3778    -3.3773 C.3     
  23 O23           -2.0309    -4.8534    -4.6405 O.3     
  24 N24           -3.9673    -7.0208    -5.4892 N.am    
  25 C25           -2.9882    -7.1005    -4.3899 C.3     
  26 C26           -1.7882    -6.2436    -4.8648 C.3     
  27 C27           -1.7571    -6.5650    -6.3823 C.3     
  28 C28           -3.2523    -6.7099    -6.7357 C.3     
  29 C29           -3.4415    -7.8472    -7.7416 C.3     
  30 N30           -2.8136    -7.4831    -9.0141 N.pl3   
  31 C31           -2.7664    -8.4039   -10.0546 C.ar    
  32 C32           -3.3167    -9.6673    -9.8802 C.ar    
  33 C33           -3.2622   -10.5769   -10.9287 C.ar    
  34 C34           -2.6534   -10.1806   -12.1196 C.ar    
  35 C35           -2.1295    -8.9098   -12.2178 C.ar    
  36 N36           -2.2019    -8.0660   -11.2045 N.ar    
  37 O37           -3.7882   -11.8214   -10.7975 O.3     
  38 C38           -3.6872   -12.6908   -11.9271 C.3     
  39 C39           -5.2968    -7.2077    -5.3720 C.2     
  40 O40           -5.9992    -7.2043    -6.3607 O.2     
  41 C41           -5.9108    -7.4209    -4.0123 C.3     
  42 C42           -7.4224    -7.6063    -4.1587 C.3     
  43 C43           -7.7039    -8.8235    -5.0419 C.3     
  44 C44           -8.0458    -7.8227    -2.7783 C.3     
  45 C45           -8.0294    -6.3579    -4.8023 C.3     
  46 H46           -1.8718    -0.7861     0.1470 H       
  47 H47           -2.8909    -0.6588    -2.0752 H       
  48 H48           -1.3170    -0.2658    -2.8077 H       
  49 H49           -2.8145     2.6735    -0.6288 H       
  50 H50            0.6937    -0.5933    -1.2879 H       
  51 H51           -2.5280    -3.7087     3.3851 H       
  52 H52            0.2661    -5.8583     0.9847 H       
  53 H53            2.5674    -3.6956     0.5970 H       
  54 H54            1.6192    -4.6514    -0.5674 H       
  55 H55            1.5783    -2.8731    -0.6332 H       
  56 H56           -2.6317    -6.4668     1.9458 H       
  57 H57           -1.0853    -7.0036     2.6447 H       
  58 H58           -2.2511    -6.1065     3.6468 H       
  59 H59           -2.1670    -0.6961     2.0563 H       
  60 H60           -2.3144    -1.4095     3.6804 H       
  61 H61           -0.8052    -0.5981     3.1984 H       
  62 H62           -1.0638    -2.7074    -1.4109 H       
  63 H63           -0.4849    -4.5314    -3.3084 H       
  64 H64           -2.0589    -4.9244    -2.5759 H       
  65 H65           -3.4111    -6.6867    -3.4745 H       
  66 H66           -2.6780    -8.1334    -4.2324 H       
  67 H67           -0.8654    -6.5603    -4.3787 H       
  68 H68           -1.3065    -5.7448    -6.9411 H       
  69 H69           -1.2247    -7.4979    -6.5681 H       
  70 H70           -3.6264    -5.7757    -7.1546 H       
  71 H71           -2.9787    -8.7551    -7.3547 H       
  72 H72           -4.5061    -8.0204    -7.8981 H       
  73 H73           -2.4308    -6.5995    -9.1308 H       
  74 H74           -3.7799    -9.9386    -8.9431 H       
  75 H75           -2.5930   -10.8622   -12.9551 H       
  76 H76           -1.6571    -8.5982   -13.1376 H       
  77 H77           -2.6369   -12.8416   -12.1768 H       
  78 H78           -4.1454   -13.6507   -11.6889 H       
  79 H79           -4.2022   -12.2434   -12.7772 H       
  80 H80           -5.4784    -8.3103    -3.5538 H       
  81 H81           -5.7103    -6.5537    -3.3831 H       
  82 H82           -7.2715    -9.7128    -4.5834 H       
  83 H83           -8.7808    -8.9556    -5.1462 H       
  84 H84           -7.2598    -8.6693    -6.0253 H       
  85 H85           -7.8453    -6.9556    -2.1491 H       
  86 H86           -9.1227    -7.9548    -2.8826 H       
  87 H87           -7.6134    -8.7121    -2.3198 H       
  88 H88           -7.5853    -6.2037    -5.7857 H       
  89 H89           -9.1063    -6.4900    -4.9066 H       
  90 H90           -7.8289    -5.4908    -4.1731 H       
@<TRIPOS>BOND
   1    1    2 1
   2    1    4 2
   3    1    5 1
   4    2    3 1
   5    2    6 1
   6    2   46 1
   7    3   19 1
   8    3   47 1
   9    3   48 1
  10    5   49 1
  11    6    7 am
  12    6   50 1
  13    7    8 2
  14    7    9 2
  15    7   10 1
  16   10   11 ar
  17   10   15 ar
  18   11   12 ar
  19   11   18 1
  20   12   13 ar
  21   12   51 1
  22   13   14 ar
  23   13   17 1
  24   14   15 ar
  25   14   52 1
  26   15   16 1
  27   16   53 1
  28   16   54 1
  29   16   55 1
  30   17   56 1
  31   17   57 1
  32   17   58 1
  33   18   59 1
  34   18   60 1
  35   18   61 1
  36   19   20 am
  37   19   62 1
  38   20   21 2
  39   20   22 1
  40   22   23 1
  41   22   63 1
  42   22   64 1
  43   23   26 1
  44   24   25 1
  45   24   28 1
  46   24   39 am
  47   25   26 1
  48   25   65 1
  49   25   66 1
  50   26   27 1
  51   26   67 1
  52   27   28 1
  53   27   68 1
  54   27   69 1
  55   28   29 1
  56   28   70 1
  57   29   30 1
  58   29   71 1
  59   29   72 1
  60   30   31 1
  61   30   73 1
  62   31   32 ar
  63   31   36 ar
  64   32   33 ar
  65   32   74 1
  66   33   34 ar
  67   33   37 1
  68   34   35 ar
  69   34   75 1
  70   35   36 ar
  71   35   76 1
  72   37   38 1
  73   38   77 1
  74   38   78 1
  75   38   79 1
  76   39   40 2
  77   39   41 1
  78   41   42 1
  79   41   80 1
  80   41   81 1
  81   42   43 1
  82   42   44 1
  83   42   45 1
  84   43   82 1
  85   43   83 1
  86   43   84 1
  87   44   85 1
  88   44   86 1
  89   44   87 1
  90   45   88 1
  91   45   89 1
  92   45   90 1

#	End of record

