#	Name: ASD01882697
#	Creating user name:	WinNT
#	Creation time:	15. 06. 2019 19:45

#	Modifying user name:	WinNT
#	Modification time:	15. 06. 2019 19:45

#	Program:	/corina/corina34_cracker 3.40 0067  02.08.2006

@<TRIPOS>MOLECULE
ASD01882697
  65   67    0    0    0
SMALL
NO_CHARGES


@<TRIPOS>ATOM
   1 C1            -0.0166     1.3739     0.0096 C.ar    
   2 C2             0.0021    -0.0041     0.0020 C.ar    
   3 C3             1.2214    -0.6861    -0.0133 C.ar    
   4 C4             2.4208     0.0327    -0.0210 C.ar    
   5 C5             2.3947     1.4132    -0.0133 C.ar    
   6 C6             1.1740     2.0874     0.0021 C.ar    
   7 O7             1.1501     3.4451     0.0096 O.3     
   8 C8            -0.1343     4.0712     0.0253 C.3     
   9 C9             0.0394     5.5913     0.0318 C.3     
  10 C10           -1.3358     6.2617     0.0486 C.3     
  11 C11           -1.1620     7.7818     0.0552 C.3     
  12 O12           -2.4464     8.4080     0.0709 O.3     
  13 C13           -2.4703     9.7644     0.0784 C.ar    
  14 C14           -3.7125    11.8172     0.1077 C.ar    
  15 C15           -3.6857    10.4332     0.0994 C.ar    
  16 C16           -1.2745    10.4785     0.0708 C.ar    
  17 C17           -1.2849    11.8427     0.0792 C.ar    
  18 C18           -2.5033    12.5355     0.0951 C.ar    
  19 C19           -4.9754     9.6538     0.1128 C.3     
  20 O20           -4.8973    12.4764     0.1286 O.3     
  21 C21           -2.5172    14.0003     0.1031 C.2     
  22 O22           -3.5736    14.5969     0.1206 O.2     
  23 C23           -1.2194    14.7662     0.0896 C.3     
  24 C24           -1.5132    16.2677     0.1016 C.3     
  25 O25            3.5594     2.1154    -0.0203 O.3     
  26 C26            1.2434    -2.1606    -0.0210 C.2     
  27 O27            0.0867    -2.8518    -0.0132 O.3     
  28 O28            2.3046    -2.7523    -0.0343 O.2     
  29 C29            4.7723     1.3600    -0.0355 C.3     
  30 C30           -2.0804    16.6981     1.4771 C.3     
  31 C31           -0.2059    17.0748    -0.0378 C.3     
  32 C32           -0.3525    18.3091     0.8692 C.3     
  33 C33           -1.7438    18.2091     1.5280 C.3     
  34 H34           -0.9599     1.8998     0.0169 H       
  35 H35           -0.9258    -0.5568     0.0083 H       
  36 H36            3.3654    -0.4907    -0.0325 H       
  37 H37           -0.6945     3.7734    -0.8610 H       
  38 H38           -0.6775     3.7638     0.9189 H       
  39 H39            0.5997     5.8892     0.9181 H       
  40 H40            0.5827     5.8988    -0.8617 H       
  41 H41           -1.8960     5.9639    -0.8377 H       
  42 H42           -1.8790     5.9543     0.9422 H       
  43 H43           -0.6018     8.0797     0.9415 H       
  44 H44           -0.6188     8.0893    -0.8384 H       
  45 H45           -0.3333     9.9490     0.0586 H       
  46 H46           -0.3534    12.3893     0.0740 H       
  47 H47           -5.3005     9.4717    -0.9115 H       
  48 H48           -4.8190     8.7013     0.6192 H       
  49 H49           -5.7395    10.2246     0.6405 H       
  50 H50           -5.2282    12.6626     1.0179 H       
  51 H51           -0.6333    14.5036     0.9703 H       
  52 H52           -0.6575    14.5131    -0.8095 H       
  53 H53           -2.2080    16.5259    -0.6976 H       
  54 H54            0.1517    -3.8166    -0.0186 H       
  55 H55            4.8009     0.7366    -0.9291 H       
  56 H56            5.6239     2.0403    -0.0397 H       
  57 H57            4.8172     0.7270     0.8507 H       
  58 H58           -3.1583    16.5409     1.5167 H       
  59 H59           -1.5811    16.1636     2.2852 H       
  60 H60            0.6418    16.4714     0.2869 H       
  61 H61           -0.0681    17.3864    -1.0732 H       
  62 H62            0.4240    18.3048     1.6340 H       
  63 H63           -0.2859    19.2198     0.2739 H       
  64 H64           -2.4767    18.7826     0.9606 H       
  65 H65           -1.7028    18.5562     2.5605 H       
@<TRIPOS>BOND
   1    1    2 ar
   2    1    6 ar
   3    1   34 1
   4    2    3 ar
   5    2   35 1
   6    3    4 ar
   7    3   26 1
   8    4    5 ar
   9    4   36 1
  10    5    6 ar
  11    5   25 1
  12    6    7 1
  13    7    8 1
  14    8    9 1
  15    8   37 1
  16    8   38 1
  17    9   10 1
  18    9   39 1
  19    9   40 1
  20   10   11 1
  21   10   41 1
  22   10   42 1
  23   11   12 1
  24   11   43 1
  25   11   44 1
  26   12   13 1
  27   13   16 ar
  28   13   15 ar
  29   14   15 ar
  30   14   18 ar
  31   14   20 1
  32   15   19 1
  33   16   17 ar
  34   16   45 1
  35   17   18 ar
  36   17   46 1
  37   18   21 1
  38   19   47 1
  39   19   48 1
  40   19   49 1
  41   20   50 1
  42   21   22 2
  43   21   23 1
  44   23   24 1
  45   23   51 1
  46   23   52 1
  47   24   31 1
  48   24   30 1
  49   24   53 1
  50   25   29 1
  51   26   27 1
  52   26   28 2
  53   27   54 1
  54   29   55 1
  55   29   56 1
  56   29   57 1
  57   30   33 1
  58   30   58 1
  59   30   59 1
  60   31   32 1
  61   31   60 1
  62   31   61 1
  63   32   33 1
  64   32   62 1
  65   32   63 1
  66   33   64 1
  67   33   65 1

#	End of record

