#	Name: ASD01840218
#	Creating user name:	WinNT
#	Creation time:	15. 06. 2019 19:37

#	Modifying user name:	WinNT
#	Modification time:	15. 06. 2019 19:37

#	Program:	/corina/corina34_cracker 3.40 0067  02.08.2006

@<TRIPOS>MOLECULE
ASD01840218
  44   46    0    0    0
SMALL
NO_CHARGES


@<TRIPOS>ATOM
   1 C1            -0.1661     1.0973     0.2346 C.ar    
   2 C2            -0.1063    -0.2725     0.1055 C.ar    
   3 N3             1.0640    -0.8868     0.0650 N.ar    
   4 N4             2.1770    -0.2579     0.1415 N.ar    
   5 C5             1.0516     1.8107     0.3207 C.ar    
   6 C6             2.6089     3.5677     0.5101 C.2     
   7 C7             1.2953     3.2346     0.4589 C.2     
   8 C8             2.2396     1.0699     0.2684 C.ar    
   9 S9             3.6254     2.1447     0.3913 S.3     
  10 N10            0.2743     4.1725     0.5324 N.pl3   
  11 C11            3.1112     4.9340     0.6468 C.2     
  12 N12            4.4387     5.1630     0.6883 N.am    
  13 O13            2.3302     5.8649     0.7232 O.2     
  14 C14            4.9419     6.5320     0.8253 C.3     
  15 C15           -1.4903     1.8153     0.2765 C.3     
  16 C16           -1.3789    -1.0742     0.0108 C.3     
  17 C17            6.4717     6.5134     0.8464 C.3     
  18 N18            6.9763     7.8861     0.9837 N.3     
  19 C19            6.6219     8.4490     2.2948 C.3     
  20 C20            8.4301     7.9368     0.7708 C.3     
  21 C21            8.9036     9.3898     0.8637 C.3     
  22 O22            8.5230     9.9298     2.1321 O.3     
  23 C23            7.1136     9.8968     2.3724 C.3     
  24 H24            0.4599     5.1068     0.3493 H       
  25 H25           -0.6246     3.8934     0.7667 H       
  26 H26            5.0609     4.4214     0.6274 H       
  27 H27            4.5975     7.1318    -0.0172 H       
  28 H28            4.5710     6.9642     1.7547 H       
  29 H29           -1.7782     1.9865     1.3137 H       
  30 H30           -1.4014     2.7719    -0.2385 H       
  31 H31           -2.2492     1.2069    -0.2156 H       
  32 H32           -1.6706    -1.1704    -1.0350 H       
  33 H33           -1.2167    -2.0649     0.4354 H       
  34 H34           -2.1698    -0.5670     0.5634 H       
  35 H35            6.8161     5.9136     1.6888 H       
  36 H36            6.8426     6.0812    -0.0830 H       
  37 H37            5.5394     8.4250     2.4206 H       
  38 H38            7.0936     7.8617     3.0826 H       
  39 H39            8.9307     7.3413     1.5343 H       
  40 H40            8.6675     7.5390    -0.2158 H       
  41 H41            9.9884     9.4261     0.7633 H       
  42 H42            8.4439     9.9741     0.0666 H       
  43 H43            6.6018    10.4958     1.6191 H       
  44 H44            6.9037    10.2999     3.3631 H       
@<TRIPOS>BOND
   1    1    2 ar
   2    1    5 ar
   3    1   15 1
   4    2    3 ar
   5    2   16 1
   6    3    4 ar
   7    4    8 ar
   8    5    8 ar
   9    5    7 1
  10    6    7 2
  11    6    9 1
  12    6   11 1
  13    7   10 1
  14    8    9 1
  15   10   24 1
  16   10   25 1
  17   11   12 am
  18   11   13 2
  19   12   14 1
  20   12   26 1
  21   14   17 1
  22   14   27 1
  23   14   28 1
  24   15   29 1
  25   15   30 1
  26   15   31 1
  27   16   32 1
  28   16   33 1
  29   16   34 1
  30   17   18 1
  31   17   35 1
  32   17   36 1
  33   18   20 1
  34   18   19 1
  35   19   23 1
  36   19   37 1
  37   19   38 1
  38   20   21 1
  39   20   39 1
  40   20   40 1
  41   21   22 1
  42   21   41 1
  43   21   42 1
  44   22   23 1
  45   23   43 1
  46   23   44 1

#	End of record

