#	Name: ASD01350005
#	Creating user name:	WinNT
#	Creation time:	15. 06. 2019 19:16

#	Modifying user name:	WinNT
#	Modification time:	15. 06. 2019 19:16

#	Program:	/corina/corina34_cracker 3.40 0067  02.08.2006

@<TRIPOS>MOLECULE
ASD01350005
  60   63    0    0    0
SMALL
NO_CHARGES


@<TRIPOS>ATOM
   1 C1             0.1359     1.2334    -0.1579 C.3     
   2 C2             0.4977    -0.2181    -0.4794 C.3     
   3 C3             1.4167     2.0553    -0.0004 C.3     
   4 C4             1.0613     3.5069     0.1942 C.ar    
   5 C5             2.1863     1.5616     1.1975 C.ar    
   6 C6            -0.7831    -1.0400    -0.6369 C.3     
   7 N7            -0.4358    -2.4336    -0.9455 N.3     
   8 C8            -1.6192    -3.2999    -0.8706 C.3     
   9 C9            -1.1969    -4.7594    -1.0535 C.3     
  10 C10           -0.5087    -4.9202    -2.4118 C.3     
  11 C11            0.6916    -3.9722    -2.4824 C.3     
  12 C12            0.2146    -2.5355    -2.2581 C.3     
  13 C13            3.5203     1.2219     1.0693 C.ar    
  14 C14            4.2272     0.7695     2.1672 C.ar    
  15 C15            3.5989     0.6564     3.3959 C.ar    
  16 C16            2.2629     0.9969     3.5230 C.ar    
  17 C17            1.5594     1.4542     2.4249 C.ar    
  18 C18            1.6450     4.4738    -0.6031 C.ar    
  19 C19            1.3195     5.8051    -0.4258 C.ar    
  20 C20            0.4085     6.1704     0.5508 C.ar    
  21 C21           -0.1754     5.2012     1.3487 C.ar    
  22 C22            0.1477     3.8699     1.1661 C.ar    
  23 C23           -0.0373    -6.3426    -2.5723 C.ar    
  24 O24           -1.4314    -4.6011    -3.4553 O.3     
  25 C25            0.0336    -6.9091    -3.8313 C.ar    
  26 C26            0.4659    -8.2135    -3.9791 C.ar    
  27 C27            0.8278    -8.9523    -2.8667 C.ar    
  28 C28            0.7566    -8.3848    -1.6069 C.ar    
  29 C29            0.3295    -7.0784    -1.4609 C.ar    
  30 Cl30           1.3703   -10.5910    -3.0515 Cl      
  31 F31            0.0899     7.4717     0.7253 F       
  32 F32            4.2889     0.2138     4.4698 F       
  33 H33           -0.4636     1.6466    -0.9691 H       
  34 H34           -0.4348     1.2686     0.7701 H       
  35 H35            1.0684    -0.2533    -1.4074 H       
  36 H36            1.0972    -0.6313     0.3318 H       
  37 H37            2.0296     1.9482    -0.8954 H       
  38 H38           -1.3539    -1.0048     0.2911 H       
  39 H39           -1.3826    -0.6268    -1.4480 H       
  40 H40           -2.0967    -3.1790     0.1017 H       
  41 H41           -2.3217    -3.0238    -1.6569 H       
  42 H42           -0.5050    -5.0403    -0.2594 H       
  43 H43           -2.0774    -5.4007    -1.0134 H       
  44 H44            1.4132    -4.2407    -1.7109 H       
  45 H45            1.1604    -4.0511    -3.4633 H       
  46 H46           -0.4965    -2.2630    -3.0380 H       
  47 H47            1.0689    -1.8595    -2.2936 H       
  48 H48            4.0100     1.3098     0.1108 H       
  49 H49            5.2692     0.5038     2.0668 H       
  50 H50            1.7718     0.9092     4.4809 H       
  51 H51            0.5173     1.7198     2.5238 H       
  52 H52            2.3558     4.1886    -1.3645 H       
  53 H53            1.7758     6.5603    -1.0485 H       
  54 H54           -0.8861     5.4850     2.1108 H       
  55 H55           -0.3077     3.1137     1.7884 H       
  56 H56           -1.0618    -4.6816    -4.3453 H       
  57 H57           -0.2493    -6.3324    -4.6995 H       
  58 H58            0.5209    -8.6562    -4.9627 H       
  59 H59            1.0390    -8.9610    -0.7382 H       
  60 H60            0.2740    -6.6353    -0.4776 H       
@<TRIPOS>BOND
   1    1    2 1
   2    1    3 1
   3    1   33 1
   4    1   34 1
   5    2    6 1
   6    2   35 1
   7    2   36 1
   8    3    4 1
   9    3    5 1
  10    3   37 1
  11    4   18 ar
  12    4   22 ar
  13    5   13 ar
  14    5   17 ar
  15    6    7 1
  16    6   38 1
  17    6   39 1
  18    7    8 1
  19    7   12 1
  20    8    9 1
  21    8   40 1
  22    8   41 1
  23    9   10 1
  24    9   42 1
  25    9   43 1
  26   10   11 1
  27   10   23 1
  28   10   24 1
  29   11   12 1
  30   11   44 1
  31   11   45 1
  32   12   46 1
  33   12   47 1
  34   13   14 ar
  35   13   48 1
  36   14   15 ar
  37   14   49 1
  38   15   16 ar
  39   15   32 1
  40   16   17 ar
  41   16   50 1
  42   17   51 1
  43   18   19 ar
  44   18   52 1
  45   19   20 ar
  46   19   53 1
  47   20   21 ar
  48   20   31 1
  49   21   22 ar
  50   21   54 1
  51   22   55 1
  52   23   25 ar
  53   23   29 ar
  54   24   56 1
  55   25   26 ar
  56   25   57 1
  57   26   27 ar
  58   26   58 1
  59   27   28 ar
  60   27   30 1
  61   28   29 ar
  62   28   59 1
  63   29   60 1

#	End of record

