#	Name: ASD05513048
#	Creating user name:	WinNT
#	Creation time:	15. 06. 2019 21:01

#	Modifying user name:	WinNT
#	Modification time:	15. 06. 2019 21:01

#	Program:	/corina/corina34_cracker 3.40 0067  02.08.2006

@<TRIPOS>MOLECULE
ASD05513048
  29   31    0    0    0
SMALL
NO_CHARGES


@<TRIPOS>ATOM
   1 C1            -0.0108     1.4057     0.4155 C.2     
   2 C2             0.0021    -0.0041     0.0020 C.2     
   3 C3             1.1833    -0.6674    -0.1155 C.2     
   4 C4             2.5227    -0.0872    -0.3457 C.ar    
   5 C5             3.4202    -1.1637    -0.3933 C.ar    
   6 N6             2.7248    -2.3553    -0.2089 N.am    
   7 C7             1.4105    -2.1346    -0.0339 C.2     
   8 C8             2.9805     1.2189    -0.5051 C.ar    
   9 C9             4.3249     1.4527    -0.7108 C.ar    
  10 C10            5.2147     0.3924    -0.7589 C.ar    
  11 C11            4.7711    -0.9072    -0.6016 C.ar    
  12 O12            0.5596    -2.9825     0.1489 O.2     
  13 O13            1.0189     1.9431     0.7762 O.2     
  14 C14           -1.2738     2.1724     0.3873 C.ar    
  15 C15           -2.4621     1.5688    -0.0303 C.ar    
  16 N16           -3.5871     2.2525    -0.0557 N.ar    
  17 C17           -3.6409     3.5199     0.3074 C.ar    
  18 C18           -2.5075     4.1903     0.7336 C.ar    
  19 C19           -1.3009     3.5161     0.7845 C.ar    
  20 Cl20           5.9027    -2.2223    -0.6646 Cl      
  21 H21           -0.9266    -0.5136    -0.2086 H       
  22 H22            3.1370    -3.2333    -0.2034 H       
  23 H23            2.2860     2.0452    -0.4681 H       
  24 H24            4.6837     2.4638    -0.8348 H       
  25 H25            6.2653     0.5828    -0.9210 H       
  26 H26           -2.4581     0.5328    -0.3352 H       
  27 H27           -4.5850     4.0430     0.2711 H       
  28 H28           -2.5655     5.2279     1.0273 H       
  29 H29           -0.4012     4.0148     1.1135 H       
@<TRIPOS>BOND
   1    1    2 1
   2    1   13 2
   3    1   14 1
   4    2    3 2
   5    2   21 1
   6    3    4 1
   7    3    7 1
   8    4    5 ar
   9    4    8 ar
  10    5    6 1
  11    5   11 ar
  12    6    7 am
  13    6   22 1
  14    7   12 2
  15    8    9 ar
  16    8   23 1
  17    9   10 ar
  18    9   24 1
  19   10   11 ar
  20   10   25 1
  21   11   20 1
  22   14   15 ar
  23   14   19 ar
  24   15   16 ar
  25   15   26 1
  26   16   17 ar
  27   17   18 ar
  28   17   27 1
  29   18   19 ar
  30   18   28 1
  31   19   29 1

#	End of record

