#	Name: ASD01913534
#	Creating user name:	WinNT
#	Creation time:	15. 06. 2019 20:01

#	Modifying user name:	WinNT
#	Modification time:	15. 06. 2019 20:01

#	Program:	/corina/corina34_cracker 3.40 0067  02.08.2006

@<TRIPOS>MOLECULE
ASD01913534
  38   40    0    0    0
SMALL
NO_CHARGES


@<TRIPOS>ATOM
   1 C1             0.6107     0.4680     1.3085 C.ar    
   2 C2             0.1836    -0.0467     0.0887 C.ar    
   3 C3             0.9873     0.1179    -1.0306 C.ar    
   4 N4             2.1397     0.7518    -0.9437 N.ar    
   5 C5             2.5733     1.2514     0.1972 C.ar    
   6 C6             1.8284     1.1277     1.3548 C.ar    
   7 C7            -0.9779    -2.0548    -0.1107 C.ar    
   8 C8             0.2304    -2.7457    -0.1338 C.ar    
   9 C9             0.2193    -4.1253    -0.2364 C.ar    
  10 N10           -0.9140    -4.7897    -0.3125 N.ar    
  11 C11           -2.0899    -4.1718    -0.2941 C.ar    
  12 C12           -2.1603    -2.7865    -0.1925 C.ar    
  13 C13           -3.3375    -4.9656    -0.3825 C.2     
  14 N14           -3.2764    -6.3083    -0.4811 N.am    
  15 O15           -1.0033    -0.7018    -0.0055 O.3     
  16 C16           -4.4516    -7.0656    -0.4540 C.ar    
  17 C17           -5.6129    -6.5690    -1.0313 C.ar    
  18 C18           -6.7720    -7.3198    -1.0032 C.ar    
  19 C19           -6.7769    -8.5643    -0.4007 C.ar    
  20 C20           -5.6221    -9.0616     0.1755 C.ar    
  21 C21           -4.4585    -8.3188     0.1454 C.ar    
  22 O22           -4.4162    -4.4060    -0.3662 O.2     
  23 C23           -5.6324   -10.4181     0.8319 C.3     
  24 F24           -6.9119   -10.9749     0.7319 F       
  25 F25           -4.7094   -11.2526     0.1924 F       
  26 F26           -5.2854   -10.2861     2.1807 F       
  27 H27            0.0058     0.3601     2.1967 H       
  28 H28            0.6655    -0.2778    -1.9825 H       
  29 H29            3.5234     1.7642     0.2273 H       
  30 H30            2.1914     1.5400     2.2847 H       
  31 H31            1.1664    -2.2104    -0.0727 H       
  32 H32            1.1546    -4.6650    -0.2546 H       
  33 H33           -3.1171    -2.2857    -0.1777 H       
  34 H34           -2.4171    -6.7494    -0.5709 H       
  35 H35           -5.6099    -5.5967    -1.5014 H       
  36 H36           -7.6755    -6.9342    -1.4519 H       
  37 H37           -7.6846    -9.1492    -0.3798 H       
  38 H38           -3.5571    -8.7077     0.5956 H       
@<TRIPOS>BOND
   1    1    2 ar
   2    1    6 ar
   3    1   27 1
   4    2    3 ar
   5    2   15 1
   6    3    4 ar
   7    3   28 1
   8    4    5 ar
   9    5    6 ar
  10    5   29 1
  11    6   30 1
  12    7    8 ar
  13    7   12 ar
  14    7   15 1
  15    8    9 ar
  16    8   31 1
  17    9   10 ar
  18    9   32 1
  19   10   11 ar
  20   11   12 ar
  21   11   13 1
  22   12   33 1
  23   13   14 am
  24   13   22 2
  25   14   16 1
  26   14   34 1
  27   16   17 ar
  28   16   21 ar
  29   17   18 ar
  30   17   35 1
  31   18   19 ar
  32   18   36 1
  33   19   20 ar
  34   19   37 1
  35   20   21 ar
  36   20   23 1
  37   21   38 1
  38   23   24 1
  39   23   25 1
  40   23   26 1

#	End of record

