#	Name: ASD01200255
#	Creating user name:	WinNT
#	Creation time:	15. 06. 2019 19:08

#	Modifying user name:	WinNT
#	Modification time:	15. 06. 2019 19:08

#	Program:	/corina/corina34_cracker 3.40 0067  02.08.2006

@<TRIPOS>MOLECULE
ASD01200255
  42   43    0    0    0
SMALL
NO_CHARGES


@<TRIPOS>ATOM
   1 C1            -0.0184     1.5028     0.0103 C.2     
   2 C2             0.0021    -0.0041     0.0020 C.3     
   3 C3             1.4513    -0.4944    -0.0145 C.3     
   4 O4             1.0232     2.1232     0.0037 O.2     
   5 N5            -1.1946     2.1607     0.0195 N.am    
   6 C6            -0.6897    -0.5226     1.2364 C.ar    
   7 C7            -1.8040    -1.3319     1.1154 C.ar    
   8 C8            -2.4388    -1.8084     2.2479 C.ar    
   9 C9            -1.9577    -1.4743     3.5028 C.ar    
  10 C10           -0.8428    -0.6646     3.6220 C.ar    
  11 C11           -0.2063    -0.1935     2.4888 C.ar    
  12 Cl12          -2.7538    -2.0711     4.9254 Cl      
  13 Cl13          -3.8384    -2.8243     2.0965 Cl      
  14 C14            2.1173    -0.0733    -1.3260 C.3     
  15 C15            3.5988    -0.4536    -1.2907 C.3     
  16 C16            4.2648    -0.0325    -2.6022 C.3     
  17 C17            3.5831    -0.7450    -3.7721 C.3     
  18 C18            2.1016    -0.3648    -3.8073 C.3     
  19 C19            1.4356    -0.7858    -2.4958 C.3     
  20 C20           -1.2129     3.5083     0.0269 C.2     
  21 N21           -2.3891     4.1663     0.0360 N.am    
  22 O22           -0.1687     4.1303     0.0253 O.2     
  23 H23           -0.5153    -0.3696    -0.8850 H       
  24 H24            1.9924    -0.0570     0.8246 H       
  25 H25            1.4682    -1.5810     0.0691 H       
  26 H26           -2.0280     1.6644     0.0207 H       
  27 H27           -2.1789    -1.5918     0.1364 H       
  28 H28           -0.4671    -0.4037     4.6003 H       
  29 H29            0.6667     0.4355     2.5822 H       
  30 H30            2.0219     1.0051    -1.4520 H       
  31 H31            4.0845     0.0540    -0.4573 H       
  32 H32            3.6942    -1.5321    -1.1646 H       
  33 H33            4.1694     1.0459    -2.7283 H       
  34 H34            5.3203    -0.3034    -2.5771 H       
  35 H35            4.0576    -0.4451    -4.7064 H       
  36 H36            3.6785    -1.8235    -3.6460 H       
  37 H37            2.0062     0.7137    -3.9334 H       
  38 H38            1.6159    -0.8724    -4.6408 H       
  39 H39            1.5310    -1.8643    -2.3698 H       
  40 H40            0.3801    -0.5149    -2.5210 H       
  41 H41           -3.2225     3.6699     0.0373 H       
  42 H42           -2.4022     5.1362     0.0414 H       
@<TRIPOS>BOND
   1    1    2 1
   2    1    4 2
   3    1    5 am
   4    2    3 1
   5    2    6 1
   6    2   23 1
   7    3   14 1
   8    3   24 1
   9    3   25 1
  10    5   20 am
  11    5   26 1
  12    6    7 ar
  13    6   11 ar
  14    7    8 ar
  15    7   27 1
  16    8    9 ar
  17    8   13 1
  18    9   10 ar
  19    9   12 1
  20   10   11 ar
  21   10   28 1
  22   11   29 1
  23   14   15 1
  24   14   19 1
  25   14   30 1
  26   15   16 1
  27   15   31 1
  28   15   32 1
  29   16   17 1
  30   16   33 1
  31   16   34 1
  32   17   18 1
  33   17   35 1
  34   17   36 1
  35   18   19 1
  36   18   37 1
  37   18   38 1
  38   19   39 1
  39   19   40 1
  40   20   21 am
  41   20   22 2
  42   21   41 1
  43   21   42 1

#	End of record

