#	Name: ASD00069288
#	Creating user name:	WinNT
#	Creation time:	15. 06. 2019 18:29

#	Modifying user name:	WinNT
#	Modification time:	15. 06. 2019 18:29

#	Program:	/corina/corina34_cracker 3.40 0067  02.08.2006

@<TRIPOS>MOLECULE
ASD00069288
  49   50    0    0    0
SMALL
NO_CHARGES


@<TRIPOS>ATOM
   1 C1            -0.0162     1.3436     0.0094 C.2     
   2 N2             0.0021    -0.0041     0.0020 N.am    
   3 O3             1.0277     1.9654     0.0028 O.2     
   4 O4            -1.1912     2.0008     0.0186 O.3     
   5 C5            -1.2565    -0.7538     0.0100 C.3     
   6 N6             2.7231    -3.2207    -0.0371 N.3     
   7 C7             2.6964    -2.3956     1.1773 C.3     
   8 C8             1.3868    -1.6055     1.2301 C.3     
   9 C9             1.2806    -0.7192    -0.0140 C.3     
  10 C10            1.3596    -1.5981    -1.2654 C.3     
  11 C11            2.6700    -2.3884    -1.2458 C.3     
  12 C12            3.8446    -4.0539    -0.0518 C.ar    
  13 C13            3.6863    -5.4333    -0.0983 C.ar    
  14 C14            4.7965    -6.2542    -0.1132 C.ar    
  15 C15            6.0659    -5.7041    -0.0814 C.ar    
  16 C16            6.2267    -4.3308    -0.0351 C.ar    
  17 C17            5.1199    -3.5045    -0.0258 C.ar    
  18 N18            2.3290    -6.0224    -0.1314 N.pl3   
  19 O19            2.1908    -7.2319    -0.1722 O.2     
  20 O20            1.3501    -5.2978    -0.1179 O.2     
  21 Br21           7.5838    -6.8317    -0.1007 Br      
  22 C22           -1.1349     3.4517     0.0262 C.3     
  23 C23           -0.4003     3.9401    -1.2239 C.3     
  24 C24           -2.5565     4.0172     0.0360 C.3     
  25 C25           -0.3885     3.9266     1.2745 C.3     
  26 H26           -1.5785    -0.9342    -1.0156 H       
  27 H27           -1.1084    -1.7071     0.5173 H       
  28 H28           -2.0192    -0.1778     0.5342 H       
  29 H29            2.7684    -3.0383     2.0547 H       
  30 H30            3.5380    -1.7031     1.1645 H       
  31 H31            0.5451    -2.2975     1.2568 H       
  32 H32            1.3741    -0.9814     2.1236 H       
  33 H33            2.1000    -0.0004    -0.0203 H       
  34 H34            0.5175    -2.2900    -1.2779 H       
  35 H35            1.3274    -0.9687    -2.1547 H       
  36 H36            3.5117    -1.6960    -1.2473 H       
  37 H37            2.7228    -3.0259    -2.1284 H       
  38 H38            4.6741    -7.3266    -0.1494 H       
  39 H39            7.2186    -3.9043    -0.0103 H       
  40 H40            5.2460    -2.4324     0.0063 H       
  41 H41           -0.9321     3.6018    -2.1132 H       
  42 H42           -0.3581     5.0293    -1.2182 H       
  43 H43            0.6125     3.5373    -1.2309 H       
  44 H44           -3.0798     3.6692     0.9266 H       
  45 H45           -2.5142     5.1064     0.0417 H       
  46 H46           -3.0883     3.6789    -0.8533 H       
  47 H47            0.6243     3.5237     1.2675 H       
  48 H48           -0.3462     5.0157     1.2802 H       
  49 H49           -0.9118     3.5786     2.1651 H       
@<TRIPOS>BOND
   1    1    2 am
   2    1    3 2
   3    1    4 1
   4    2    5 1
   5    2    9 1
   6    4   22 1
   7    5   26 1
   8    5   27 1
   9    5   28 1
  10    6    7 1
  11    6   11 1
  12    6   12 1
  13    7    8 1
  14    7   29 1
  15    7   30 1
  16    8    9 1
  17    8   31 1
  18    8   32 1
  19    9   10 1
  20    9   33 1
  21   10   11 1
  22   10   34 1
  23   10   35 1
  24   11   36 1
  25   11   37 1
  26   12   13 ar
  27   12   17 ar
  28   13   14 ar
  29   13   18 1
  30   14   15 ar
  31   14   38 1
  32   15   16 ar
  33   15   21 1
  34   16   17 ar
  35   16   39 1
  36   17   40 1
  37   18   19 2
  38   18   20 2
  39   22   23 1
  40   22   25 1
  41   22   24 1
  42   23   41 1
  43   23   42 1
  44   23   43 1
  45   24   44 1
  46   24   45 1
  47   24   46 1
  48   25   47 1
  49   25   48 1
  50   25   49 1

#	End of record

