#	Name: ASD03090390
#	Creating user name:	WinNT
#	Creation time:	15. 06. 2019 20:28

#	Modifying user name:	WinNT
#	Modification time:	15. 06. 2019 20:28

#	Program:	/corina/corina34_cracker 3.40 0067  02.08.2006

@<TRIPOS>MOLECULE
ASD03090390
  38   40    0    0    0
SMALL
NO_CHARGES


@<TRIPOS>ATOM
   1 C1            -0.0169     1.3956     0.0097 C.ar    
   2 C2             0.0021    -0.0041     0.0020 C.ar    
   3 C3             1.2332    -0.6365    -0.0131 C.ar    
   4 C4             2.3778     0.1582    -0.0198 C.ar    
   5 N5             2.2662     1.4802    -0.0116 N.ar    
   6 N6             1.1263     2.0702     0.0024 N.ar    
   7 C7            -1.3065     2.1204     0.0198 C.2     
   8 O8            -2.3520     1.5005     0.0213 O.2     
   9 N9            -1.3221     3.4680     0.0272 N.am    
  10 C10           -2.5991     4.1858     0.0371 C.3     
  11 N11           -1.6388     9.7305    -0.2106 N.pl3   
  12 C12           -1.6162     9.9039    -1.5676 C.2     
  13 C13           -1.8228     8.7287    -2.1827 C.2     
  14 C14           -1.9915     7.7203    -1.1337 C.ar    
  15 C15           -2.2303     6.3446    -1.1393 C.ar    
  16 C16           -2.3409     5.6705     0.0439 C.ar    
  17 C17           -2.2176     6.3424     1.2526 C.ar    
  18 C18           -1.9824     7.6994     1.2812 C.ar    
  19 C19           -1.8663     8.4058     0.0883 C.ar    
  20 O20            3.6040    -0.4187    -0.0342 O.3     
  21 C21            4.7331     0.4572    -0.0403 C.3     
  22 C22            6.0201    -0.3700    -0.0564 C.3     
  23 H23           -0.9158    -0.5731     0.0081 H       
  24 H24            1.3046    -1.7142    -0.0193 H       
  25 H25           -0.4877     3.9627     0.0259 H       
  26 H26           -3.1718     3.9207    -0.8516 H       
  27 H27           -3.1634     3.9111     0.9283 H       
  28 H28           -1.5097    10.4351     0.4435 H       
  29 H29           -1.4562    10.8467    -2.0696 H       
  30 H30           -1.8579     8.5590    -3.2487 H       
  31 H31           -2.3282     5.8154    -2.0757 H       
  32 H32           -2.3074     5.7958     2.1797 H       
  33 H33           -1.8884     8.2131     2.2265 H       
  34 H34            4.6969     1.0903    -0.9268 H       
  35 H35            4.7135     1.0813     0.8531 H       
  36 H36            6.0562    -1.0032     0.8300 H       
  37 H37            6.0396    -0.9942    -0.9498 H       
  38 H38            6.8813     0.2981    -0.0611 H       
@<TRIPOS>BOND
   1    1    2 ar
   2    1    6 ar
   3    1    7 1
   4    2    3 ar
   5    2   23 1
   6    3    4 ar
   7    3   24 1
   8    4    5 ar
   9    4   20 1
  10    5    6 ar
  11    7    8 2
  12    7    9 am
  13    9   10 1
  14    9   25 1
  15   10   16 1
  16   10   26 1
  17   10   27 1
  18   11   12 1
  19   11   19 1
  20   11   28 1
  21   12   13 2
  22   12   29 1
  23   13   14 1
  24   13   30 1
  25   14   15 ar
  26   14   19 ar
  27   15   16 ar
  28   15   31 1
  29   16   17 ar
  30   17   18 ar
  31   17   32 1
  32   18   19 ar
  33   18   33 1
  34   20   21 1
  35   21   22 1
  36   21   34 1
  37   21   35 1
  38   22   36 1
  39   22   37 1
  40   22   38 1

#	End of record

