#	Name: ASD01901244
#	Creating user name:	WinNT
#	Creation time:	15. 06. 2019 19:53

#	Modifying user name:	WinNT
#	Modification time:	15. 06. 2019 19:53

#	Program:	/corina/corina34_cracker 3.40 0067  02.08.2006

@<TRIPOS>MOLECULE
ASD01901244
  43   46    0    0    0
SMALL
NO_CHARGES


@<TRIPOS>ATOM
   1 C1            -0.0166     1.3749     0.0096 C.ar    
   2 C2             0.0021    -0.0041     0.0020 C.ar    
   3 C3             1.2078    -0.6830    -0.0127 C.ar    
   4 C4             2.4027     0.0149    -0.0203 C.ar    
   5 C5             2.3997     1.3941    -0.0134 C.ar    
   6 C6             1.1860     2.0866     0.0019 C.ar    
   7 C7             1.1748     3.5185     0.0093 C.1     
   8 C8             1.1656     4.6925     0.0153 C.1     
   9 C9             1.1543     6.1244     0.0226 C.ar    
  10 C10           -0.0678     8.1952     0.0508 C.ar    
  11 C11           -0.0607     6.8154     0.0433 C.ar    
  12 C12            2.3584     6.8345     0.0149 C.ar    
  13 C13            2.3438     8.2143     0.0225 C.ar    
  14 C14            1.1325     8.8989     0.0377 C.ar    
  15 F15           -1.2417     8.8638     0.0708 F       
  16 N16            1.1215    10.3004     0.0449 N.am    
  17 C17            1.1325    10.9568     1.2254 C.2     
  18 C18            1.0992    13.0781    -0.0423 C.ar    
  19 N19            1.0949    12.3065    -1.1953 N.am    
  20 C20            1.1058    10.9644    -1.1213 C.2     
  21 C21            1.1211    12.4301     1.2051 C.ar    
  22 C22            1.0718    12.9607    -2.5059 C.3     
  23 O23            1.1015    10.3247    -2.1552 O.2     
  24 O24            1.1510    10.3476     2.2777 O.2     
  25 C25            1.0880    14.4635    -0.0952 C.ar    
  26 C26            1.1309    13.1791     2.3796 C.ar    
  27 C27            1.1190    14.5562     2.3071 C.ar    
  28 C28            1.0975    15.1941     1.0762 C.ar    
  29 F29            3.5071     8.9014     0.0155 F       
  30 H30           -0.9584     1.9035     0.0169 H       
  31 H31           -0.9266    -0.5554     0.0079 H       
  32 H32            1.2163    -1.7630    -0.0178 H       
  33 H33            3.3399    -0.5217    -0.0315 H       
  34 H34            3.3331     1.9375    -0.0190 H       
  35 H35           -0.9928     6.2698     0.0530 H       
  36 H36            3.2989     6.3038     0.0034 H       
  37 H37            2.0936    13.1352    -2.8430 H       
  38 H38            0.5571    12.3206    -3.2225 H       
  39 H39            0.5475    13.9131    -2.4274 H       
  40 H40            1.0755    14.9693    -1.0494 H       
  41 H41            1.1473    12.6850     3.3398 H       
  42 H42            1.1261    15.1414     3.2148 H       
  43 H43            1.0887    16.2733     1.0334 H       
@<TRIPOS>BOND
   1    1    2 ar
   2    1    6 ar
   3    1   30 1
   4    2    3 ar
   5    2   31 1
   6    3    4 ar
   7    3   32 1
   8    4    5 ar
   9    4   33 1
  10    5    6 ar
  11    5   34 1
  12    6    7 1
  13    7    8 3
  14    8    9 1
  15    9   12 ar
  16    9   11 ar
  17   10   11 ar
  18   10   14 ar
  19   10   15 1
  20   11   35 1
  21   12   13 ar
  22   12   36 1
  23   13   14 ar
  24   13   29 1
  25   14   16 1
  26   16   17 am
  27   16   20 am
  28   17   21 1
  29   17   24 2
  30   18   19 1
  31   18   21 ar
  32   18   25 ar
  33   19   20 am
  34   19   22 1
  35   20   23 2
  36   21   26 ar
  37   22   37 1
  38   22   38 1
  39   22   39 1
  40   25   28 ar
  41   25   40 1
  42   26   27 ar
  43   26   41 1
  44   27   28 ar
  45   27   42 1
  46   28   43 1

#	End of record

