#	Name: ASD04590728
#	Creating user name:	WinNT
#	Creation time:	15. 06. 2019 20:51

#	Modifying user name:	WinNT
#	Modification time:	15. 06. 2019 20:51

#	Program:	/corina/corina34_cracker 3.40 0067  02.08.2006

@<TRIPOS>MOLECULE
ASD04590728
  83   89    0    0    0
SMALL
NO_CHARGES


@<TRIPOS>ATOM
   1 N1            -0.1030     1.1143     0.1027 N.ar    
   2 C2            -0.1112    -0.2062    -0.0276 C.ar    
   3 N3             1.0018    -0.9209    -0.0561 N.ar    
   4 C4             2.1886    -0.3298     0.0468 C.ar    
   5 C5             2.2312     1.0722     0.1865 C.ar    
   6 C6             1.0342     1.7811     0.2112 C.ar    
   7 N7             3.4763    -0.8041     0.0486 N.pl3   
   8 C8             4.3757     0.2408     0.1854 C.ar    
   9 C9             3.6504     1.4387     0.2760 C.ar    
  10 C10            5.7685     0.3031     0.2440 C.ar    
  11 N11            6.3788     1.4668     0.3815 N.ar    
  12 C12            5.7156     2.6078     0.4689 C.ar    
  13 C13            4.3499     2.6391     0.4198 C.ar    
  14 C14            3.8475    -2.2158    -0.0759 C.3     
  15 N15           -1.3278    -0.8594    -0.1373 N.pl3   
  16 C16           -2.5178    -0.1432    -0.0098 C.ar    
  17 N17           -2.4786     1.1355     0.3282 N.ar    
  18 C18           -3.5789     1.8520     0.4600 C.ar    
  19 C19           -4.8253     1.2830     0.2464 C.ar    
  20 C20           -4.9062    -0.0621    -0.1111 C.ar    
  21 C21           -3.7317    -0.7797    -0.2449 C.ar    
  22 N22           -5.9881     2.0496     0.3886 N.3     
  23 C23           -5.6647     3.4307     0.7686 C.3     
  24 C24           -6.9571     4.1980     1.0563 C.3     
  25 C25           -7.8408     4.1865    -0.1941 C.3     
  26 C26           -8.1229     2.7364    -0.5968 C.3     
  27 C27           -6.7967     2.0114    -0.8366 C.3     
  28 C28            3.2324    -3.0087     1.0790 C.3     
  29 C29            3.6201    -4.4830     0.9489 C.3     
  30 C30            3.0993    -5.0319    -0.3809 C.3     
  31 C31            3.7144    -4.2390    -1.5358 C.3     
  32 C32            3.3267    -2.7647    -1.4057 C.3     
  33 C33            3.4869    -6.5062    -0.5110 C.3     
  34 C34            1.5757    -4.8993    -0.4257 C.3     
  35 N35           -9.1081     4.8714     0.0940 N.3     
  36 C36           -8.8767     6.2838     0.4481 C.3     
  37 C37           -9.7008     7.1423    -0.5344 C.3     
  38 C38          -10.7951     6.1583    -1.0254 C.3     
  39 C39          -10.0148     4.8209    -1.0726 C.3     
  40 O40            6.4998    -0.8372     0.1597 O.3     
  41 C41            7.9209    -0.7030     0.2264 C.3     
  42 H42            1.0337     2.8558     0.3173 H       
  43 H43            6.2633     3.5319     0.5805 H       
  44 H44            3.8200     3.5773     0.4927 H       
  45 H45            4.9330    -2.3103    -0.0440 H       
  46 H46           -1.3521    -1.8149    -0.3028 H       
  47 H47           -3.5079     2.8933     0.7376 H       
  48 H48           -5.8634    -0.5316    -0.2833 H       
  49 H49           -3.7572    -1.8235    -0.5210 H       
  50 H50           -5.0394     3.4248     1.6614 H       
  51 H51           -5.1283     3.9156    -0.0470 H       
  52 H52           -7.4873     3.7216     1.8810 H       
  53 H53           -6.7175     5.2273     1.3231 H       
  54 H54           -7.3266     4.6972    -1.0083 H       
  55 H55           -8.6714     2.2370     0.2018 H       
  56 H56           -8.7163     2.7215    -1.5111 H       
  57 H57           -6.2550     2.5030    -1.6447 H       
  58 H58           -6.9936     0.9747    -1.1096 H       
  59 H59            3.6034    -2.6177     2.0264 H       
  60 H60            2.1470    -2.9142     1.0471 H       
  61 H61            4.7055    -4.5775     0.9809 H       
  62 H62            3.1818    -5.0479     1.7717 H       
  63 H63            4.7998    -4.3335    -1.5039 H       
  64 H64            3.3434    -4.6300    -2.4832 H       
  65 H65            2.2413    -2.6702    -1.4377 H       
  66 H66            3.7649    -2.1998    -2.2285 H       
  67 H67            3.0487    -7.0711     0.3118 H       
  68 H68            3.1159    -6.8973    -1.4583 H       
  69 H69            4.5724    -6.6007    -0.4790 H       
  70 H70            1.2995    -3.8489    -0.3330 H       
  71 H71            1.2046    -5.2903    -1.3731 H       
  72 H72            1.1375    -5.4642     0.3971 H       
  73 H73           -9.2077     6.4690     1.4700 H       
  74 H74           -7.8176     6.5220     0.3502 H       
  75 H75          -10.1495     7.9925    -0.0205 H       
  76 H76           -9.0817     7.4768    -1.3668 H       
  77 H77          -11.6194     6.1045    -0.3142 H       
  78 H78          -11.1540     6.4362    -2.0164 H       
  79 H79           -9.4409     4.7489    -1.9965 H       
  80 H80          -10.7004     3.9782    -0.9842 H       
  81 H81            8.1986    -0.2466     1.1765 H       
  82 H82            8.3829    -1.6871     0.1473 H       
  83 H83            8.2653    -0.0730    -0.5937 H       
@<TRIPOS>BOND
   1    1    2 ar
   2    1    6 ar
   3    2    3 ar
   4    2   15 1
   5    3    4 ar
   6    4    5 ar
   7    4    7 1
   8    5    6 ar
   9    5    9 1
  10    6   42 1
  11    7    8 1
  12    7   14 1
  13    8    9 ar
  14    8   10 ar
  15    9   13 ar
  16   10   11 ar
  17   10   40 1
  18   11   12 ar
  19   12   13 ar
  20   12   43 1
  21   13   44 1
  22   14   28 1
  23   14   32 1
  24   14   45 1
  25   15   16 1
  26   15   46 1
  27   16   17 ar
  28   16   21 ar
  29   17   18 ar
  30   18   19 ar
  31   18   47 1
  32   19   20 ar
  33   19   22 1
  34   20   21 ar
  35   20   48 1
  36   21   49 1
  37   22   23 1
  38   22   27 1
  39   23   24 1
  40   23   50 1
  41   23   51 1
  42   24   25 1
  43   24   52 1
  44   24   53 1
  45   25   26 1
  46   25   35 1
  47   25   54 1
  48   26   27 1
  49   26   55 1
  50   26   56 1
  51   27   57 1
  52   27   58 1
  53   28   29 1
  54   28   59 1
  55   28   60 1
  56   29   30 1
  57   29   61 1
  58   29   62 1
  59   30   31 1
  60   30   33 1
  61   30   34 1
  62   31   32 1
  63   31   63 1
  64   31   64 1
  65   32   65 1
  66   32   66 1
  67   33   67 1
  68   33   68 1
  69   33   69 1
  70   34   70 1
  71   34   71 1
  72   34   72 1
  73   35   36 1
  74   35   39 1
  75   36   37 1
  76   36   73 1
  77   36   74 1
  78   37   38 1
  79   37   75 1
  80   37   76 1
  81   38   39 1
  82   38   77 1
  83   38   78 1
  84   39   79 1
  85   39   80 1
  86   40   41 1
  87   41   81 1
  88   41   82 1
  89   41   83 1

#	End of record

