#	Name: ASD01900365
#	Creating user name:	WinNT
#	Creation time:	15. 06. 2019 19:51

#	Modifying user name:	WinNT
#	Modification time:	15. 06. 2019 19:51

#	Program:	/corina/corina34_cracker 3.40 0067  02.08.2006

@<TRIPOS>MOLECULE
ASD01900365
  33   35    0    0    0
SMALL
NO_CHARGES


@<TRIPOS>ATOM
   1 O1            -0.0162     1.3449     0.0094 O.3     
   2 C2             0.0021    -0.0041     0.0020 C.2     
   3 C3             1.3061    -0.4089    -0.0126 C.2     
   4 C4             2.0901     0.7555    -0.0138 C.2     
   5 C5             1.2411     1.8066    -0.0001 C.2     
   6 C6            -1.1726    -0.8818     0.0090 C.2     
   7 O7            -1.0293    -2.0906     0.0015 O.2     
   8 N8            -2.4110    -0.3502     0.0236 N.am    
   9 N9            -5.6168    -1.9200     0.0459 N.am    
  10 C10           -4.8327    -0.7991     0.0447 C.2     
  11 C11           -3.5379    -1.1922     0.0302 C.2     
  12 C12           -3.5275    -2.6047     0.0222 C.2     
  13 C13           -4.8106    -3.0190     0.0320 C.2     
  14 S14           -7.2726    -1.9387     0.0676 S.o2    
  15 O15           -7.6526    -3.1974     0.6068 O.2     
  16 O16           -7.6806    -0.6982     0.6277 O.2     
  17 C17           -7.8163    -1.9308    -1.6084 C.ar    
  18 C18           -8.0136    -3.1295    -2.2680 C.ar    
  19 C19           -8.4415    -3.1128    -3.5863 C.ar    
  20 C20           -8.6561    -1.8844    -4.1953 C.ar    
  21 C21           -8.4374    -0.7265    -3.4714 C.ar    
  22 N22           -8.0353    -0.7816    -2.2166 N.ar    
  23 Cl23          -9.1917    -1.8024    -5.8446 Cl      
  24 H24            1.6648    -1.4275    -0.0210 H       
  25 H25            3.1691     0.8024    -0.0236 H       
  26 H26            1.5289     2.8476     0.0028 H       
  27 H27           -2.5253     0.6130     0.0295 H       
  28 H28           -5.1855     0.2216     0.0535 H       
  29 H29           -2.6521    -3.2370     0.0100 H       
  30 H30           -5.1429    -4.0466     0.0301 H       
  31 H31           -7.8362    -4.0673    -1.7625 H       
  32 H32           -8.6035    -4.0338    -4.1266 H       
  33 H33           -8.6020     0.2338    -3.9375 H       
@<TRIPOS>BOND
   1    1    2 1
   2    1    5 1
   3    2    3 2
   4    2    6 1
   5    3    4 1
   6    3   24 1
   7    4    5 2
   8    4   25 1
   9    5   26 1
  10    6    7 2
  11    6    8 am
  12    8   11 1
  13    8   27 1
  14    9   10 1
  15    9   13 1
  16    9   14 am
  17   10   11 2
  18   10   28 1
  19   11   12 1
  20   12   13 2
  21   12   29 1
  22   13   30 1
  23   14   15 2
  24   14   16 2
  25   14   17 1
  26   17   18 ar
  27   17   22 ar
  28   18   19 ar
  29   18   31 1
  30   19   20 ar
  31   19   32 1
  32   20   21 ar
  33   20   23 1
  34   21   22 ar
  35   21   33 1

#	End of record

