#	Name: ASD02198454
#	Creating user name:	WinNT
#	Creation time:	15. 06. 2019 20:19

#	Modifying user name:	WinNT
#	Modification time:	15. 06. 2019 20:19

#	Program:	/corina/corina34_cracker 3.40 0067  02.08.2006

@<TRIPOS>MOLECULE
ASD02198454
  35   37    0    0    0
SMALL
NO_CHARGES


@<TRIPOS>ATOM
   1 C1            -0.0401     1.5610     0.0814 C.ar    
   2 S2            -1.4448    -0.8033     0.0271 S.o2    
   3 C3             0.0296     0.1575     0.1141 C.ar    
   4 C4            -1.8843    -0.8388     2.6377 C.ar    
   5 N5            -2.3400    -0.4507     1.3749 N.am    
   6 O6            -2.1806    -0.3095    -1.0838 O.2     
   7 O7            -1.0467    -2.1615     0.1539 O.2     
   8 C8             1.2403    -0.4565     0.2128 C.ar    
   9 C9             2.4183     0.2840     0.2824 C.ar    
  10 C10            2.3907     1.6451     0.2540 C.ar    
  11 C11            1.1595     2.3121     0.1523 C.ar    
  12 C12            1.0877     3.7176     0.1193 C.ar    
  13 C13           -0.1446     4.2976     0.0188 C.ar    
  14 C14           -1.2852     3.5001    -0.0477 C.ar    
  15 N15           -1.2145     2.1915    -0.0205 N.ar    
  16 C16           -0.5252    -0.8251     2.9215 C.ar    
  17 C17           -2.7911    -1.2343     3.6146 C.ar    
  18 C18           -2.3366    -1.6174     4.8618 C.ar    
  19 C19           -0.9814    -1.6072     5.1387 C.ar    
  20 C20           -0.0779    -1.2094     4.1709 C.ar    
  21 Cl21          -4.4921    -1.2461     3.2679 Cl      
  22 C22            1.3976    -1.2001     4.4775 C.3     
  23 F23            1.6848    -2.1953     5.4178 F       
  24 F24            2.1192    -1.4448     3.3042 F       
  25 Cl25           1.8627     0.4092     5.1444 Cl      
  26 H26           -3.1807     0.0253     1.2879 H       
  27 H27            1.2885    -1.5351     0.2379 H       
  28 H28            3.3659    -0.2283     0.3603 H       
  29 H29            3.3106     2.2083     0.3094 H       
  30 H30            1.9823     4.3204     0.1723 H       
  31 H31           -0.2350     5.3735    -0.0087 H       
  32 H32           -2.2531     3.9727    -0.1265 H       
  33 H33            0.1815    -0.5145     2.1662 H       
  34 H34           -3.0401    -1.9247     5.6214 H       
  35 H35           -0.6287    -1.9067     6.1145 H       
@<TRIPOS>BOND
   1    1    3 ar
   2    1   11 ar
   3    1   15 ar
   4    2    3 1
   5    2    6 2
   6    2    7 2
   7    2    5 am
   8    3    8 ar
   9    4    5 1
  10    4   16 ar
  11    4   17 ar
  12    5   26 1
  13    8    9 ar
  14    8   27 1
  15    9   10 ar
  16    9   28 1
  17   10   11 ar
  18   10   29 1
  19   11   12 ar
  20   12   13 ar
  21   12   30 1
  22   13   14 ar
  23   13   31 1
  24   14   15 ar
  25   14   32 1
  26   16   20 ar
  27   16   33 1
  28   17   18 ar
  29   17   21 1
  30   18   19 ar
  31   18   34 1
  32   19   20 ar
  33   19   35 1
  34   20   22 1
  35   22   23 1
  36   22   24 1
  37   22   25 1

#	End of record

