#	Name: ASD02039038
#	Creating user name:	WinNT
#	Creation time:	15. 06. 2019 20:17

#	Modifying user name:	WinNT
#	Modification time:	15. 06. 2019 20:17

#	Program:	/corina/corina34_cracker 3.40 0067  02.08.2006

@<TRIPOS>MOLECULE
ASD02039038
  39   42    0    0    0
SMALL
NO_CHARGES


@<TRIPOS>ATOM
   1 N1            -0.0167     1.2911     0.1671 N.2     
   2 N2            -0.0037     0.0049     0.1937 N.2     
   3 C3             1.2121     1.7350     0.0620 C.2     
   4 O4             2.0226     0.6610     0.0221 O.3     
   5 C5             1.2228    -0.4199     0.1075 C.2     
   6 N6             1.6034     3.0607     0.0032 N.pl3   
   7 C7             0.6403     4.0705    -0.0872 C.ar    
   8 C8             1.6683    -1.8595     0.1042 C.3     
   9 O9             1.7051    -2.3437    -1.2398 O.3     
  10 C10            2.0898    -3.6351    -1.4203 C.ar    
  11 C11            2.1461    -4.1634    -2.6947 C.ar    
  12 C12            2.4306    -4.4169    -0.3194 C.ar    
  13 C13            2.8235    -5.7271    -0.4833 C.ar    
  14 C14            2.8821    -6.2805    -1.7578 C.ar    
  15 C15            2.5430    -5.4924    -2.8739 C.ar    
  16 C16            1.0179     5.4040     0.0147 C.ar    
  17 C17           -0.6951     3.7432    -0.2848 C.ar    
  18 C18           -1.6444     4.7423    -0.3738 C.ar    
  19 C19           -1.2676     6.0686    -0.2668 C.ar    
  20 C20            0.0622     6.3999    -0.0752 C.ar    
  21 N21            3.2728    -7.5913    -1.9429 N.am    
  22 C22            3.3297    -8.1287    -3.1740 C.2     
  23 C23            2.9956    -7.3824    -4.3242 C.2     
  24 C24            2.6086    -6.0879    -4.2099 C.2     
  25 O25            3.6792    -9.2896    -3.2998 O.2     
  26 Cl26           0.5305     8.0662     0.0585 Cl      
  27 Cl27           2.6863     5.8192     0.2551 Cl      
  28 H28            2.5457     3.2897     0.0246 H       
  29 H29            2.6628    -1.9331     0.5442 H       
  30 H30            0.9679    -2.4579     0.6869 H       
  31 H31            1.8850    -3.5544    -3.5475 H       
  32 H32            2.3868    -3.9919     0.6725 H       
  33 H33            3.0863    -6.3241     0.3775 H       
  34 H34           -0.9908     2.7079    -0.3692 H       
  35 H35           -2.6826     4.4875    -0.5274 H       
  36 H36           -2.0123     6.8476    -0.3372 H       
  37 H37            3.5100    -8.1325    -1.1737 H       
  38 H38            3.0519    -7.8430    -5.2995 H       
  39 H39            2.3509    -5.5097    -5.0849 H       
@<TRIPOS>BOND
   1    1    2 1
   2    1    3 2
   3    2    5 2
   4    3    4 1
   5    3    6 1
   6    4    5 1
   7    5    8 1
   8    6    7 1
   9    6   28 1
  10    7   16 ar
  11    7   17 ar
  12    8    9 1
  13    8   29 1
  14    8   30 1
  15    9   10 1
  16   10   11 ar
  17   10   12 ar
  18   11   15 ar
  19   11   31 1
  20   12   13 ar
  21   12   32 1
  22   13   14 ar
  23   13   33 1
  24   14   15 ar
  25   14   21 1
  26   15   24 1
  27   16   27 1
  28   16   20 ar
  29   17   18 ar
  30   17   34 1
  31   18   19 ar
  32   18   35 1
  33   19   20 ar
  34   19   36 1
  35   20   26 1
  36   21   22 am
  37   21   37 1
  38   22   23 1
  39   22   25 2
  40   23   24 2
  41   23   38 1
  42   24   39 1

#	End of record

