#	Name: ASD05580002
#	Creating user name:	WinNT
#	Creation time:	15. 06. 2019 21:01

#	Modifying user name:	WinNT
#	Modification time:	15. 06. 2019 21:01

#	Program:	/corina/corina34_cracker 3.40 0067  02.08.2006

@<TRIPOS>MOLECULE
ASD05580002
  37   38    0    0    0
SMALL
NO_CHARGES


@<TRIPOS>ATOM
   1 C1            -0.0167     1.3781     0.0096 C.ar    
   2 C2             0.0021    -0.0041     0.0020 C.ar    
   3 C3             1.2084    -0.6789    -0.0132 C.ar    
   4 C4             2.3960     0.0285    -0.0212 C.ar    
   5 C5             2.3773     1.4107    -0.0145 C.ar    
   6 C6             1.1710     2.0855     0.0021 C.ar    
   7 C7            -1.2926    -0.7753     0.0108 C.3     
   8 S8             3.8911     2.3124    -0.0242 S.o2    
   9 O9             3.6013     3.5889     0.5289 O.2     
  10 O10            4.8803     1.4415     0.5071 O.2     
  11 C11            4.3237     2.5873    -1.7100 C.ar    
  12 C12            3.8808     3.7236    -2.3608 C.ar    
  13 C13            4.2202     3.9392    -3.6834 C.ar    
  14 C14            5.0028     3.0187    -4.3551 C.ar    
  15 C15            5.4464     1.8828    -3.7040 C.ar    
  16 C16            5.1106     1.6693    -2.3801 C.ar    
  17 C17            5.5943     0.4311    -1.6703 C.3     
  18 C18            3.0277     4.7271    -1.6286 C.3     
  19 C19            5.3719     3.2532    -5.7972 C.3     
  20 H20           -0.9592     1.9054     0.0170 H       
  21 H21            1.2231    -1.7588    -0.0184 H       
  22 H22            3.3386    -0.4987    -0.0324 H       
  23 H23            1.1563     3.1654     0.0069 H       
  24 H24           -1.6150    -0.9557    -1.0147 H       
  25 H25           -1.1443    -1.7285     0.5181 H       
  26 H26           -2.0550    -0.1993     0.5353 H       
  27 H27            3.8736     4.8266    -4.1921 H       
  28 H28            6.0576     1.1635    -4.2288 H       
  29 H29            6.5584     0.6330    -1.2035 H       
  30 H30            4.8726     0.1458    -0.9048 H       
  31 H31            5.7016    -0.3812    -2.3892 H       
  32 H32            3.6679     5.4700    -1.1530 H       
  33 H33            2.3607     5.2211    -2.3351 H       
  34 H34            2.4373     4.2159    -0.8681 H       
  35 H35            6.3069     3.8114    -5.8468 H       
  36 H36            5.4939     2.2946    -6.3015 H       
  37 H37            4.5821     3.8232    -6.2863 H       
@<TRIPOS>BOND
   1    1    2 ar
   2    1    6 ar
   3    1   20 1
   4    2    3 ar
   5    2    7 1
   6    3    4 ar
   7    3   21 1
   8    4    5 ar
   9    4   22 1
  10    5    6 ar
  11    5    8 1
  12    6   23 1
  13    7   24 1
  14    7   25 1
  15    7   26 1
  16    8    9 2
  17    8   10 2
  18    8   11 1
  19   11   12 ar
  20   11   16 ar
  21   12   13 ar
  22   12   18 1
  23   13   14 ar
  24   13   27 1
  25   14   15 ar
  26   14   19 1
  27   15   16 ar
  28   15   28 1
  29   16   17 1
  30   17   29 1
  31   17   30 1
  32   17   31 1
  33   18   32 1
  34   18   33 1
  35   18   34 1
  36   19   35 1
  37   19   36 1
  38   19   37 1

#	End of record

