#	Name: ASD02100003
#	Creating user name:	WinNT
#	Creation time:	15. 06. 2019 20:18

#	Modifying user name:	WinNT
#	Modification time:	15. 06. 2019 20:18

#	Program:	/corina/corina34_cracker 3.40 0067  02.08.2006

@<TRIPOS>MOLECULE
ASD02100003
  12   11    0    0    0
SMALL
NO_CHARGES


@<TRIPOS>ATOM
   1 P1            -0.0180     1.4758     0.0102 P.3     
   2 O2             0.0021    -0.0041     0.0020 O.2     
   3 O3             1.4924     2.0330    -0.0013 O.3     
   4 O4            -0.7967     2.0091    -1.2942 O.3     
   5 O5            -0.7716     1.9950     1.3348 O.3     
   6 C6             2.2946     1.6044    -0.9940 C.2     
   7 N7             3.5708     2.0326    -1.0616 N.am    
   8 O8             1.8681     0.8314    -1.8289 O.2     
   9 H9            -0.8486     2.9728    -1.3546 H       
  10 H10           -1.6885     1.6968     1.4081 H       
  11 H11            3.9113     2.6496    -0.3951 H       
  12 H12            4.1487     1.7237    -1.7768 H       
@<TRIPOS>BOND
   1    1    2 2
   2    1    3 1
   3    1    4 1
   4    1    5 1
   5    3    6 1
   6    4    9 1
   7    5   10 1
   8    6    7 am
   9    6    8 2
  10    7   11 1
  11    7   12 1

#	End of record

