#	Name: ASD01920033
#	Creating user name:	WinNT
#	Creation time:	15. 06. 2019 20:11

#	Modifying user name:	WinNT
#	Modification time:	15. 06. 2019 20:11

#	Program:	/corina/corina34_cracker 3.40 0067  02.08.2006

@<TRIPOS>MOLECULE
ASD01920033
  54   56    0    0    0
SMALL
NO_CHARGES


@<TRIPOS>ATOM
   1 N1            -0.1166     1.4242    -0.8660 N.pl3   
   2 C2            -0.1055     0.0625    -0.9870 C.2     
   3 C3            -1.3507    -0.4067    -0.8022 C.2     
   4 C4            -2.2013     0.7636    -0.5457 C.2     
   5 C5            -1.3621     1.8609    -0.5961 C.2     
   6 C6             1.1100    -0.7784    -1.2813 C.3     
   7 C7            -1.7711     3.2971    -0.3937 C.3     
   8 C8             1.0092     2.2485    -0.9982 C.ar    
   9 C9            -3.6421     0.7664    -0.2846 C.2     
  10 O10           -4.2212     1.8147    -0.0884 O.2     
  11 C11           -4.4059    -0.5324    -0.2594 C.3     
  12 S12           -6.1551    -0.1987     0.0864 S.3     
  13 C13           -6.8749    -1.8070     0.0767 C.ar    
  14 C14           -8.2360    -1.9606     0.3098 C.ar    
  15 C15           -8.7995    -3.2207     0.3021 C.ar    
  16 C16           -8.0061    -4.3348     0.0619 C.ar    
  17 C17           -6.6457    -4.1818    -0.1711 C.ar    
  18 C18           -6.0825    -2.9215    -0.1697 C.ar    
  19 N19           -8.5785    -5.6141     0.0551 N.am    
  20 C20           -9.8243    -5.7924    -0.4271 C.2     
  21 O21          -10.4821    -4.8351    -0.7767 O.2     
  22 C22          -10.4001    -7.1811    -0.5320 C.3     
  23 C23            1.6627     2.3429    -2.2196 C.ar    
  24 C24            2.7719     3.1560    -2.3467 C.ar    
  25 C25            3.2317     3.8756    -1.2591 C.ar    
  26 C26            2.5829     3.7837    -0.0414 C.ar    
  27 C27            1.4698     2.9767     0.0904 C.ar    
  28 S28            4.6474     4.9114    -1.4251 S.o2    
  29 O29            5.1924     5.0581    -0.1210 O.2     
  30 O30            5.3897     4.4031    -2.5250 O.2     
  31 N31            4.1079     6.4102    -1.8778 N.am    
  32 H32           -1.6643    -1.4396    -0.8355 H       
  33 H33            1.5861    -1.0691    -0.3449 H       
  34 H34            0.8099    -1.6717    -1.8290 H       
  35 H35            1.8132    -0.2025    -1.8830 H       
  36 H36           -1.6908     3.5523     0.6630 H       
  37 H37           -1.1168     3.9467    -0.9751 H       
  38 H38           -2.8017     3.4312    -0.7225 H       
  39 H39           -4.3146    -1.0264    -1.2267 H       
  40 H40           -3.9986    -1.1784     0.5184 H       
  41 H41           -8.8530    -1.0942     0.4973 H       
  42 H42           -9.8575    -3.3402     0.4833 H       
  43 H43           -6.0290    -5.0486    -0.3575 H       
  44 H44           -5.0246    -2.8025    -0.3513 H       
  45 H45           -8.0780    -6.3712     0.3975 H       
  46 H46          -10.9193    -7.4301     0.3936 H       
  47 H47          -11.1024    -7.2213    -1.3646 H       
  48 H48           -9.5952    -7.8964    -0.7008 H       
  49 H49            1.3043     1.7807    -3.0692 H       
  50 H50            3.2809     3.2295    -3.2964 H       
  51 H51            2.9445     4.3467     0.8063 H       
  52 H52            0.9633     2.9056     1.0416 H       
  53 H53            3.1584     6.5678    -1.9987 H       
  54 H54            4.7413     7.1305    -2.0221 H       
@<TRIPOS>BOND
   1    1    2 1
   2    1    8 1
   3    1    5 1
   4    2    3 2
   5    2    6 1
   6    3    4 1
   7    3   32 1
   8    4    5 2
   9    4    9 1
  10    5    7 1
  11    6   33 1
  12    6   34 1
  13    6   35 1
  14    7   36 1
  15    7   37 1
  16    7   38 1
  17    8   23 ar
  18    8   27 ar
  19    9   10 2
  20    9   11 1
  21   11   12 1
  22   11   39 1
  23   11   40 1
  24   12   13 1
  25   13   14 ar
  26   13   18 ar
  27   14   15 ar
  28   14   41 1
  29   15   16 ar
  30   15   42 1
  31   16   17 ar
  32   16   19 1
  33   17   18 ar
  34   17   43 1
  35   18   44 1
  36   19   20 am
  37   19   45 1
  38   20   21 2
  39   20   22 1
  40   22   46 1
  41   22   47 1
  42   22   48 1
  43   23   24 ar
  44   23   49 1
  45   24   25 ar
  46   24   50 1
  47   25   26 ar
  48   25   28 1
  49   26   27 ar
  50   26   51 1
  51   27   52 1
  52   28   29 2
  53   28   30 2
  54   28   31 am
  55   31   53 1
  56   31   54 1

#	End of record

