#	Name: ASD01910773
#	Creating user name:	WinNT
#	Creation time:	15. 06. 2019 19:56

#	Modifying user name:	WinNT
#	Modification time:	15. 06. 2019 19:56

#	Program:	/corina/corina34_cracker 3.40 0067  02.08.2006

@<TRIPOS>MOLECULE
ASD01910773
  47   50    0    0    0
SMALL
NO_CHARGES


@<TRIPOS>ATOM
   1 C1             0.0679     1.6932    -0.3710 C.ar    
   2 N2             0.0134     0.3722    -0.3971 N.ar    
   3 C3             1.1255    -0.3367    -0.3535 C.ar    
   4 C4             2.3577     0.3086    -0.2800 C.ar    
   5 N5             2.4077     1.6342    -0.2541 N.ar    
   6 C6             1.2887     2.3371    -0.2980 C.ar    
   7 N7             3.5317    -0.4342    -0.2335 N.3     
   8 C8             4.7073     0.4435    -0.1588 C.3     
   9 C9             5.9613    -0.4064     0.0727 C.3     
  10 N10            6.0232    -1.4415    -0.9703 N.am    
  11 C11            4.8311    -2.2724    -1.1978 C.3     
  12 C12            3.6217    -1.3490    -1.3793 C.3     
  13 C13            7.1426    -1.6236    -1.6985 C.2     
  14 C14            7.2279    -2.7485    -2.6545 C.ar    
  15 O15            8.0820    -0.8631    -1.5695 O.2     
  16 C16            7.8466    -2.5684    -3.8936 C.ar    
  17 C17            7.9272    -3.6174    -4.7885 C.ar    
  18 C18            7.3976    -4.8504    -4.4662 C.ar    
  19 C19            6.7751    -5.0454    -3.2291 C.ar    
  20 C20            6.6962    -3.9916    -2.3187 C.ar    
  21 C21            6.2251    -6.3249    -2.8958 C.1     
  22 C22            5.7742    -7.3738    -2.6226 C.1     
  23 C23            5.2242    -8.6533    -2.2894 C.ar    
  24 N24            4.6338    -8.8314    -1.1114 N.ar    
  25 C25            4.1160    -9.9929    -0.7681 C.ar    
  26 C26            4.1682   -11.0760    -1.6264 C.ar    
  27 C27            4.7755   -10.9350    -2.8671 C.ar    
  28 C28            5.3067    -9.7042    -3.2068 C.ar    
  29 H29           -0.8438     2.2707    -0.4113 H       
  30 H30            1.0803    -1.4156    -0.3745 H       
  31 H31            1.3287     3.4162    -0.2769 H       
  32 H32            4.8093     0.9952    -1.0933 H       
  33 H33            4.5858     1.1448     0.6667 H       
  34 H34            6.8476     0.2254     0.0147 H       
  35 H35            5.9079    -0.8780     1.0540 H       
  36 H36            4.9703    -2.8743    -2.0958 H       
  37 H37            4.6691    -2.9234    -0.3387 H       
  38 H38            2.7127    -1.9477    -1.4390 H       
  39 H39            3.7388    -0.7724    -2.2968 H       
  40 H40            8.2629    -1.6062    -4.1528 H       
  41 H41            8.4065    -3.4719    -5.7453 H       
  42 H42            7.4637    -5.6663    -5.1708 H       
  43 H43            6.2168    -4.1361    -1.3618 H       
  44 H44            3.6444   -10.1009     0.1974 H       
  45 H45            3.7405   -12.0236    -1.3339 H       
  46 H46            4.8282   -11.7672    -3.5535 H       
  47 H47            5.7857    -9.5595    -4.1638 H       
@<TRIPOS>BOND
   1    1    2 ar
   2    1    6 ar
   3    1   29 1
   4    2    3 ar
   5    3    4 ar
   6    3   30 1
   7    4    5 ar
   8    4    7 1
   9    5    6 ar
  10    6   31 1
  11    7    8 1
  12    7   12 1
  13    8    9 1
  14    8   32 1
  15    8   33 1
  16    9   10 1
  17    9   34 1
  18    9   35 1
  19   10   11 1
  20   10   13 am
  21   11   12 1
  22   11   36 1
  23   11   37 1
  24   12   38 1
  25   12   39 1
  26   13   14 1
  27   13   15 2
  28   14   16 ar
  29   14   20 ar
  30   16   17 ar
  31   16   40 1
  32   17   18 ar
  33   17   41 1
  34   18   19 ar
  35   18   42 1
  36   19   20 ar
  37   19   21 1
  38   20   43 1
  39   21   22 3
  40   22   23 1
  41   23   24 ar
  42   23   28 ar
  43   24   25 ar
  44   25   26 ar
  45   25   44 1
  46   26   27 ar
  47   26   45 1
  48   27   28 ar
  49   27   46 1
  50   28   47 1

#	End of record

