#	Name: ASD01810199
#	Creating user name:	WinNT
#	Creation time:	15. 06. 2019 19:24

#	Modifying user name:	WinNT
#	Modification time:	15. 06. 2019 19:24

#	Program:	/corina/corina34_cracker 3.40 0067  02.08.2006

@<TRIPOS>MOLECULE
ASD01810199
  55   59    0    0    0
SMALL
NO_CHARGES


@<TRIPOS>ATOM
   1 C1             0.1039     1.4773     0.3904 C.ar    
   2 C2             0.0850     0.0901     0.3824 C.ar    
   3 C3             1.2535    -0.6294     0.2404 C.ar    
   4 C4             2.4698     0.0389     0.1031 C.ar    
   5 C5             2.4841     1.4436     0.1118 C.ar    
   6 C6             1.2943     2.1571     0.2563 C.ar    
   7 N7             3.6452    -0.6678    -0.0386 N.pl3   
   8 C8             4.8373    -0.0735    -0.1722 C.2     
   9 C9             4.9781     1.2999    -0.1780 C.2     
  10 C10            3.7770     2.1382    -0.0343 C.2     
  11 O11            3.8480     3.3547    -0.0335 O.2     
  12 C12            6.3049     1.9144    -0.3260 C.2     
  13 O13            6.4294     3.2567    -0.3301 O.3     
  14 O14            7.2902     1.2122    -0.4448 O.2     
  15 C15            3.5871    -2.1316    -0.0427 C.3     
  16 C16            3.4445    -2.6248    -1.4595 C.ar    
  17 C17            4.5667    -2.7659    -2.2561 C.ar    
  18 C18            4.4422    -3.2166    -3.5545 C.ar    
  19 C19            3.1826    -3.5304    -4.0628 C.ar    
  20 C20            2.0555    -3.3866    -3.2552 C.ar    
  21 C21            2.1927    -2.9400    -1.9567 C.ar    
  22 C22            3.0423    -4.0147    -5.4572 C.ar    
  23 C23            1.7803    -4.3277    -5.9626 C.ar    
  24 C24            1.6488    -4.7775    -7.2570 C.ar    
  25 C25            2.7798    -4.9199    -8.0648 C.ar    
  26 C26            4.0431    -4.6056    -7.5577 C.ar    
  27 C27            4.1717    -4.1515    -6.2645 C.ar    
  28 F28            1.2196    -1.9800     0.2348 F       
  29 C29            2.6400    -5.4028    -9.4538 C.2     
  30 N30            3.7314    -5.5400   -10.2326 N.am    
  31 C31            3.5928    -6.0190   -11.6101 C.3     
  32 C32            4.6815    -5.6219   -12.6090 C.3     
  33 C33            4.5990    -7.0623   -12.0999 C.3     
  34 O34            1.5405    -5.6765    -9.8944 O.2     
  35 H35           -0.8196     2.0267     0.4980 H       
  36 H36           -0.8543    -0.4321     0.4887 H       
  37 H37            1.3064     3.2370     0.2625 H       
  38 H38            5.7184    -0.6889    -0.2787 H       
  39 H39            7.3222     3.6145    -0.4302 H       
  40 H40            4.5030    -2.5328     0.3913 H       
  41 H41            2.7311    -2.4629     0.5452 H       
  42 H42            5.5420    -2.5225    -1.8613 H       
  43 H43            5.3189    -3.3258    -4.1757 H       
  44 H44            1.0771    -3.6278    -3.6439 H       
  45 H45            1.3202    -2.8285    -1.3300 H       
  46 H46            0.9061    -4.2176    -5.3380 H       
  47 H47            0.6718    -5.0205    -7.6479 H       
  48 H48            4.9181    -4.7157    -8.1811 H       
  49 H49            5.1482    -3.9085    -5.8723 H       
  50 H50            4.6087    -5.3216    -9.8810 H       
  51 H51            2.5708    -6.0916   -11.9820 H       
  52 H52            4.3758    -5.4336   -13.6382 H       
  53 H53            5.5009    -5.0043   -12.2413 H       
  54 H54            5.3641    -7.3923   -11.3972 H       
  55 H55            4.2390    -7.8216   -12.7941 H       
@<TRIPOS>BOND
   1    1    2 ar
   2    1    6 ar
   3    1   35 1
   4    2    3 ar
   5    2   36 1
   6    3    4 ar
   7    3   28 1
   8    4    5 ar
   9    4    7 1
  10    5    6 ar
  11    5   10 1
  12    6   37 1
  13    7    8 1
  14    7   15 1
  15    8    9 2
  16    8   38 1
  17    9   10 1
  18    9   12 1
  19   10   11 2
  20   12   13 1
  21   12   14 2
  22   13   39 1
  23   15   16 1
  24   15   40 1
  25   15   41 1
  26   16   17 ar
  27   16   21 ar
  28   17   18 ar
  29   17   42 1
  30   18   19 ar
  31   18   43 1
  32   19   20 ar
  33   19   22 1
  34   20   21 ar
  35   20   44 1
  36   21   45 1
  37   22   23 ar
  38   22   27 ar
  39   23   24 ar
  40   23   46 1
  41   24   25 ar
  42   24   47 1
  43   25   26 ar
  44   25   29 1
  45   26   27 ar
  46   26   48 1
  47   27   49 1
  48   29   30 am
  49   29   34 2
  50   30   31 1
  51   30   50 1
  52   31   32 1
  53   31   33 1
  54   31   51 1
  55   32   33 1
  56   32   52 1
  57   32   53 1
  58   33   54 1
  59   33   55 1

#	End of record

