#	Name: ASD01410850
#	Creating user name:	WinNT
#	Creation time:	15. 06. 2019 19:18

#	Modifying user name:	WinNT
#	Modification time:	15. 06. 2019 19:18

#	Program:	/corina/corina34_cracker 3.40 0067  02.08.2006

@<TRIPOS>MOLECULE
ASD01410850
 113  119    0    0    0
SMALL
NO_CHARGES


@<TRIPOS>ATOM
   1 C1             0.9699     0.5108     1.5333 C.3     
   2 C2             0.2761    -0.6356     2.3050 C.3     
   3 N3             0.3361    -0.2167     3.7206 N.am    
   4 C4             0.3911     1.2496     3.7690 C.3     
   5 C5             0.4588     1.7542     2.3111 C.3     
   6 O6             2.3920     0.4004     1.6190 O.3     
   7 C7            -0.8465     1.7869     4.4404 C.2     
   8 O8            -1.6982     1.0231     4.8430 O.2     
   9 N9            -1.0067     3.1163     4.5935 N.am    
  10 C10            1.0970    -1.9227     2.1673 C.3     
  11 C11            0.5291    -2.5414     4.5707 C.3     
  12 C12            0.3740    -1.0595     4.7664 C.2     
  13 O13            0.2818    -0.6151     5.8911 O.2     
  14 C14           -0.6620    -3.2583     5.2095 C.3     
  15 C15           -0.8414    -2.7674     6.6474 C.3     
  16 C16           -1.9289    -2.9576     4.4061 C.3     
  17 C17           -2.2650     3.6460     5.1250 C.3     
  18 C18           -3.4966     3.3296     4.3163 C.2     
  19 N19           -3.4059     3.1839     2.9795 N.am    
  20 O20           -4.5694     3.2060     4.8684 O.2     
  21 S21           -4.7749     2.9518     2.0772 S.o2    
  22 C22           -5.7084     4.4957     2.2656 C.3     
  23 C23           -2.4166     3.7135     6.6460 C.3     
  24 C24           -2.2167     4.9986     5.8387 C.3     
  25 C25           -7.1018     4.5600     1.6368 C.3     
  26 C26           -6.9519     4.4651     3.1565 C.3     
  27 O27           -4.2981     2.8168     0.7454 O.2     
  28 O28           -5.4458     1.8810     2.7272 O.2     
  29 C29           -3.7863     3.4589     7.2207 C.2     
  30 C30           -3.9720     2.4675     8.0565 C.2     
  31 C31            3.1147     0.9655     0.6202 C.ar    
  32 C32            4.5280     0.9194     0.6293 C.ar    
  33 C33            2.4912     1.5975    -0.4377 C.ar    
  34 C34            3.2639     2.1716    -1.4537 C.ar    
  35 N35            4.5830     2.1248    -1.4288 N.ar    
  36 C36            5.2430     1.5230    -0.4346 C.ar    
  37 C37            2.5845     2.8482    -2.5859 C.ar    
  38 C38            6.6484     1.4831    -0.4237 C.ar    
  39 C39            7.3031     0.8567     0.6131 C.ar    
  40 C40            6.5864     0.2603     1.6546 C.ar    
  41 C41            5.2258     0.2890     1.6700 C.ar    
  42 Cl42           7.5528     2.2186    -1.7101 Cl      
  43 O43            8.6612     0.8175     0.6237 O.3     
  44 C44            9.2824     0.1534     1.7261 C.3     
  45 N45            1.2595     2.9007    -2.6212 N.ar    
  46 C46            0.6178     3.4916    -3.6080 C.ar    
  47 C47            1.3081     4.0831    -4.6506 C.ar    
  48 C48            2.6952     4.0511    -4.6529 C.ar    
  49 C49            3.3434     3.4281    -3.6000 C.ar    
  50 C50           -0.8888     3.5234    -3.6013 C.3     
  51 C51           -1.3685     4.8384    -2.9836 C.3     
  52 C52           -1.4076     3.4150    -5.0366 C.3     
  53 N53            0.5902    -2.8868     3.1522 N.am    
  54 O54            0.2139    -4.4219     1.4359 O.3     
  55 C55           -0.2464    -5.7490     1.0681 C.3     
  56 C56           -1.7069    -5.9179     1.4916 C.3     
  57 C57           -0.1309    -5.9270    -0.4471 C.3     
  58 C58            0.6137    -6.8005     1.7721 C.3     
  59 C59            0.1771    -4.1029     2.7434 C.2     
  60 O60           -0.2284    -4.9112     3.5549 O.2     
  61 H61            0.6433     0.5369     0.4937 H       
  62 H62           -0.7534    -0.7712     1.9736 H       
  63 H63            1.2794     1.5694     4.3136 H       
  64 H64            1.1634     2.5810     2.2219 H       
  65 H65           -0.5297     2.0493     1.9592 H       
  66 H66           -0.2890     3.7224     4.3518 H       
  67 H67            0.9825    -2.3276     1.1618 H       
  68 H68            2.1484    -1.7126     2.3638 H       
  69 H69            1.4469    -2.8714     5.0574 H       
  70 H70           -0.4803    -4.3331     5.2125 H       
  71 H71           -1.6900    -3.2782     7.1025 H       
  72 H72            0.0611    -2.9816     7.2198 H       
  73 H73           -1.0232    -1.6927     6.6444 H       
  74 H74           -1.8011    -3.3074     3.3817 H       
  75 H75           -2.7775    -3.4684     4.8612 H       
  76 H76           -2.1107    -1.8829     4.4031 H       
  77 H77           -2.5388     3.2150     2.5460 H       
  78 H78           -5.1127     5.4085     2.2636 H       
  79 H79           -1.5802     3.3638     7.2512 H       
  80 H80           -1.2487     5.4942     5.9130 H       
  81 H81           -3.0758     5.6594     5.7235 H       
  82 H82           -7.4228     5.5153     1.2214 H       
  83 H83           -7.4575     3.6747     1.1099 H       
  84 H84           -7.2091     3.5173     3.6294 H       
  85 H85           -7.1744     5.3579     3.7409 H       
  86 H86           -4.6148     4.0939     6.9434 H       
  87 H87           -4.9536     2.2850     8.4684 H       
  88 H88           -3.1435     1.8325     8.3338 H       
  89 H89            1.4133     1.6483    -0.4809 H       
  90 H90            7.1189    -0.2260     2.4586 H       
  91 H91            4.6842    -0.1757     2.4806 H       
  92 H92           10.3656     0.1947     1.6115 H       
  93 H93            8.9964     0.6463     2.6552 H       
  94 H94            8.9592    -0.8872     1.7523 H       
  95 H95            0.7725     4.5649    -5.4552 H       
  96 H96            3.2566     4.5055    -5.4558 H       
  97 H97            4.4221     3.3850    -3.5695 H       
  98 H98           -1.2673     2.6867    -3.0140 H       
  99 H99           -0.9900     5.6750    -3.5709 H       
 100 H100          -2.4583     4.8613    -2.9788 H       
 101 H101          -0.9989     4.9156    -1.9611 H       
 102 H102          -1.0291     4.2516    -5.6239 H       
 103 H103          -1.0658     2.4781    -5.4767 H       
 104 H104          -2.4973     3.4379    -5.0318 H       
 105 H105          -2.3196    -5.1688     0.9900 H       
 106 H106          -2.0524    -6.9141     1.2154 H       
 107 H107          -1.7891    -5.7911     2.5710 H       
 108 H108           0.9096    -5.8067    -0.7489 H       
 109 H109          -0.4764    -6.9233    -0.7233 H       
 110 H110          -0.7436    -5.1780    -0.9487 H       
 111 H111           0.5314    -6.6736     2.8516 H       
 112 H112           0.2682    -7.7967     1.4960 H       
 113 H113           1.6541    -6.6801     1.4704 H       
@<TRIPOS>BOND
   1    1    2 1
   2    1    6 1
   3    1    5 1
   4    1   61 1
   5    2    3 1
   6    2   10 1
   7    2   62 1
   8    3    4 1
   9    3   12 am
  10    4    5 1
  11    4    7 1
  12    4   63 1
  13    5   64 1
  14    5   65 1
  15    6   31 1
  16    7    8 2
  17    7    9 am
  18    9   17 1
  19    9   66 1
  20   10   53 1
  21   10   67 1
  22   10   68 1
  23   11   12 1
  24   11   14 1
  25   11   53 1
  26   11   69 1
  27   12   13 2
  28   14   15 1
  29   14   16 1
  30   14   70 1
  31   15   71 1
  32   15   72 1
  33   15   73 1
  34   16   74 1
  35   16   75 1
  36   16   76 1
  37   17   18 1
  38   17   23 1
  39   17   24 1
  40   18   19 am
  41   18   20 2
  42   19   21 am
  43   19   77 1
  44   21   22 1
  45   21   27 2
  46   21   28 2
  47   22   25 1
  48   22   26 1
  49   22   78 1
  50   23   24 1
  51   23   29 1
  52   23   79 1
  53   24   80 1
  54   24   81 1
  55   25   26 1
  56   25   82 1
  57   25   83 1
  58   26   84 1
  59   26   85 1
  60   29   30 2
  61   29   86 1
  62   30   87 1
  63   30   88 1
  64   31   32 ar
  65   31   33 ar
  66   32   36 ar
  67   32   41 ar
  68   33   34 ar
  69   33   89 1
  70   34   35 ar
  71   34   37 1
  72   35   36 ar
  73   36   38 ar
  74   37   45 ar
  75   37   49 ar
  76   38   39 ar
  77   38   42 1
  78   39   40 ar
  79   39   43 1
  80   40   41 ar
  81   40   90 1
  82   41   91 1
  83   43   44 1
  84   44   92 1
  85   44   93 1
  86   44   94 1
  87   45   46 ar
  88   46   47 ar
  89   46   50 1
  90   47   48 ar
  91   47   95 1
  92   48   49 ar
  93   48   96 1
  94   49   97 1
  95   50   51 1
  96   50   52 1
  97   50   98 1
  98   51   99 1
  99   51  100 1
 100   51  101 1
 101   52  102 1
 102   52  103 1
 103   52  104 1
 104   53   59 am
 105   54   55 1
 106   54   59 1
 107   55   56 1
 108   55   57 1
 109   55   58 1
 110   56  105 1
 111   56  106 1
 112   56  107 1
 113   57  108 1
 114   57  109 1
 115   57  110 1
 116   58  111 1
 117   58  112 1
 118   58  113 1
 119   59   60 2

#	End of record

