#	Name: ASD05740163
#	Creating user name:	WinNT
#	Creation time:	15. 06. 2019 21:02

#	Modifying user name:	WinNT
#	Modification time:	15. 06. 2019 21:02

#	Program:	/corina/corina34_cracker 3.40 0067  02.08.2006

@<TRIPOS>MOLECULE
ASD05740163
  69   73    0    0    0
SMALL
NO_CHARGES


@<TRIPOS>ATOM
   1 C1             0.2599    -2.3249     4.6950 C.3     
   2 N2            -0.8780    -1.5553     5.2170 N.3     
   3 C3            -2.0496    -1.8514     4.5115 C.ar    
   4 C4            -3.2420    -1.2260     4.8517 C.ar    
   5 C5            -4.3980    -1.5183     4.1556 C.ar    
   6 C6            -4.3685    -2.4380     3.1155 C.ar    
   7 C7            -3.1763    -3.0637     2.7755 C.ar    
   8 C8            -2.0189    -2.7666     3.4673 C.ar    
   9 N9            -5.5414    -2.7348     2.4096 N.pl3   
  10 C10           -6.4734    -1.7438     2.1711 C.ar    
  11 N11           -6.1830    -0.4956     2.5216 N.ar    
  12 N12           -7.6210    -2.0731     1.5967 N.ar    
  13 C13           -8.5392    -1.1470     1.3527 C.ar    
  14 C14           -8.2676     0.1903     1.7169 C.ar    
  15 C15           -7.0388     0.4895     2.3160 C.ar    
  16 N16           -9.7358    -1.4567     0.7594 N.am    
  17 C17          -10.6552    -0.5050     0.5190 C.2     
  18 C18          -10.4351     0.8444     0.8617 C.2     
  19 C19           -9.2703     1.2178     1.4534 C.2     
  20 C20          -10.0167    -2.8439     0.3814 C.3     
  21 O21          -11.7076    -0.8180    -0.0102 O.2     
  22 C22           -1.0554    -1.7937     6.6562 C.3     
  23 C23            0.2182    -1.3836     7.3993 C.3     
  24 N24            1.3561    -2.1532     6.8773 N.3     
  25 C25            1.5335    -1.9148     5.4381 C.3     
  26 C26            2.5860    -1.8423     7.6180 C.3     
  27 C27          -11.4890    -3.1586     0.6538 C.3     
  28 N28          -11.8779    -2.5951     1.9534 N.3     
  29 C29          -13.3397    -2.5328     2.0841 C.3     
  30 C30           -9.1722    -4.2193    -1.5318 C.ar    
  31 C31           -9.7253    -3.0339    -1.0849 C.ar    
  32 C32           -8.9049    -4.3936    -2.8768 C.ar    
  33 C33           -9.1908    -3.3824    -3.7750 C.ar    
  34 C34           -9.7443    -2.1971    -3.3282 C.ar    
  35 C35          -10.0116    -2.0229    -1.9831 C.ar    
  36 C36          -11.2827    -3.3592     3.0579 C.3     
  37 H37            0.0783    -3.3892     4.8446 H       
  38 H38            0.3786    -2.1219     3.6307 H       
  39 H39           -3.2652    -0.5113     5.6611 H       
  40 H40           -5.3253    -1.0320     4.4202 H       
  41 H41           -3.1535    -3.7795     1.9670 H       
  42 H42           -1.0917    -3.2532     3.2028 H       
  43 H43           -5.6990    -3.6363     2.0882 H       
  44 H44           -6.7977     1.5010     2.6077 H       
  45 H45          -11.1946     1.5835     0.6539 H       
  46 H46           -9.0905     2.2486     1.7209 H       
  47 H47           -9.3875    -3.5145     0.9667 H       
  48 H48           -1.8957    -1.2034     7.0217 H       
  49 H49           -1.2520    -2.8519     6.8281 H       
  50 H50            0.3998    -0.3193     7.2498 H       
  51 H51            0.0995    -1.5866     8.4637 H       
  52 H52            2.3738    -2.5051     5.0726 H       
  53 H53            1.7301    -0.8566     5.2663 H       
  54 H54            2.4491    -2.0911     8.6704 H       
  55 H55            3.4123    -2.4254     7.2113 H       
  56 H56            2.8092    -0.7798     7.5219 H       
  57 H57          -12.1054    -2.7206    -0.1313 H       
  58 H58          -11.6329    -4.2389     0.6685 H       
  59 H59          -13.7476    -3.5436     2.0876 H       
  60 H60          -13.6002    -2.0326     3.0169 H       
  61 H61          -13.7561    -1.9759     1.2447 H       
  62 H62           -8.9447    -5.0076    -0.8295 H       
  63 H63           -8.4725    -5.3196    -3.2259 H       
  64 H64           -8.9814    -3.5183    -4.8257 H       
  65 H65           -9.9677    -1.4071    -4.0299 H       
  66 H66          -10.4438    -1.0967    -1.6340 H       
  67 H67          -10.1962    -3.3305     2.9755 H       
  68 H68          -11.5867    -2.9207     4.0084 H       
  69 H69          -11.6236    -4.3934     3.0093 H       
@<TRIPOS>BOND
   1    1    2 1
   2    1   25 1
   3    1   37 1
   4    1   38 1
   5    2    3 1
   6    2   22 1
   7    3    4 ar
   8    3    8 ar
   9    4    5 ar
  10    4   39 1
  11    5    6 ar
  12    5   40 1
  13    6    7 ar
  14    6    9 1
  15    7    8 ar
  16    7   41 1
  17    8   42 1
  18    9   10 1
  19    9   43 1
  20   10   11 ar
  21   10   12 ar
  22   11   15 ar
  23   12   13 ar
  24   13   14 ar
  25   13   16 1
  26   14   15 ar
  27   14   19 1
  28   15   44 1
  29   16   17 am
  30   16   20 1
  31   17   18 1
  32   17   21 2
  33   18   19 2
  34   18   45 1
  35   19   46 1
  36   20   27 1
  37   20   31 1
  38   20   47 1
  39   22   23 1
  40   22   48 1
  41   22   49 1
  42   23   24 1
  43   23   50 1
  44   23   51 1
  45   24   25 1
  46   24   26 1
  47   25   52 1
  48   25   53 1
  49   26   54 1
  50   26   55 1
  51   26   56 1
  52   27   28 1
  53   27   57 1
  54   27   58 1
  55   28   29 1
  56   28   36 1
  57   29   59 1
  58   29   60 1
  59   29   61 1
  60   30   31 ar
  61   30   32 ar
  62   30   62 1
  63   31   35 ar
  64   32   33 ar
  65   32   63 1
  66   33   34 ar
  67   33   64 1
  68   34   35 ar
  69   34   65 1
  70   35   66 1
  71   36   67 1
  72   36   68 1
  73   36   69 1

#	End of record

