#	Name: ASD05123001
#	Creating user name:	WinNT
#	Creation time:	15. 06. 2019 20:56

#	Modifying user name:	WinNT
#	Modification time:	15. 06. 2019 20:56

#	Program:	/corina/corina34_cracker 3.40 0067  02.08.2006

@<TRIPOS>MOLECULE
ASD05123001
  35   36    0    0    0
SMALL
NO_CHARGES


@<TRIPOS>ATOM
   1 C1             0.0960     1.5517     0.0344 C.2     
   2 C2             0.0638     0.1514     0.0389 C.2     
   3 C3             1.2379    -0.5457     0.0154 C.2     
   4 C4             2.4486     0.1547    -0.0126 C.2     
   5 N5             2.4543     1.5196    -0.0165 N.pl3   
   6 C6             1.2791     2.2069     0.0070 C.2     
   7 C7             3.7985    -0.2607    -0.0406 C.2     
   8 C8             4.5823     0.9106    -0.0608 C.2     
   9 N9             3.7874     1.9465    -0.0464 N.2     
  10 C10            6.0882     0.9594    -0.0924 C.3     
  11 C11            6.5483     1.6928    -1.3539 C.3     
  12 C12            6.6006     1.7007     1.1440 C.3     
  13 C13            4.2710    -1.5916    -0.0472 C.2     
  14 C14            4.6671    -2.2570     1.2457 C.3     
  15 C15            3.4373    -2.9080     1.8818 C.3     
  16 C16            5.7235    -3.3276     0.9656 C.3     
  17 O17            4.3582    -2.2000    -1.0949 O.2     
  18 H18           -0.8280     2.1108     0.0483 H       
  19 H19           -0.8806    -0.3720     0.0611 H       
  20 H20            1.2318    -1.6257     0.0189 H       
  21 H21            1.2917     3.2868     0.0034 H       
  22 H22            6.4846    -0.0560    -0.0975 H       
  23 H23            6.1519     2.7081    -1.3489 H       
  24 H24            7.6375     1.7280    -1.3768 H       
  25 H25            6.1833     1.1646    -2.2348 H       
  26 H26            6.2728     1.1783     2.0427 H       
  27 H27            7.6898     1.7360     1.1211 H       
  28 H28            6.2042     2.7161     1.1490 H       
  29 H29            5.0770    -1.5116     1.9272 H       
  30 H30            3.7238    -3.3893     2.8170 H       
  31 H31            2.6847    -2.1453     2.0814 H       
  32 H32            3.0274    -3.6534     1.2003 H       
  33 H33            6.5996    -2.8638     0.5124 H       
  34 H34            6.0100    -3.8088     1.9007 H       
  35 H35            5.3136    -4.0730     0.2840 H       
@<TRIPOS>BOND
   1    1    2 1
   2    1    6 2
   3    1   18 1
   4    2    3 2
   5    2   19 1
   6    3    4 1
   7    3   20 1
   8    4    5 1
   9    4    7 2
  10    5    6 1
  11    5    9 1
  12    6   21 1
  13    7    8 1
  14    7   13 1
  15    8    9 2
  16    8   10 1
  17   10   11 1
  18   10   12 1
  19   10   22 1
  20   11   23 1
  21   11   24 1
  22   11   25 1
  23   12   26 1
  24   12   27 1
  25   12   28 1
  26   13   14 1
  27   13   17 2
  28   14   15 1
  29   14   16 1
  30   14   29 1
  31   15   30 1
  32   15   31 1
  33   15   32 1
  34   16   33 1
  35   16   34 1
  36   16   35 1

#	End of record

