#	Name: ASD02560532
#	Creating user name:	WinNT
#	Creation time:	15. 06. 2019 20:25

#	Modifying user name:	WinNT
#	Modification time:	15. 06. 2019 20:25

#	Program:	/corina/corina34_cracker 3.40 0067  02.08.2006

@<TRIPOS>MOLECULE
ASD02560532
  41   43    0    0    0
SMALL
NO_CHARGES


@<TRIPOS>ATOM
   1 C1            -1.2967     0.2089    -0.0385 C.ar    
   2 C2            -0.8995    -1.0929    -0.1543 C.ar    
   3 C3            -1.8559    -2.0591    -0.4705 C.ar    
   4 C4            -3.1857    -1.7165    -0.6187 C.ar    
   5 C5            -3.5974    -0.4135    -0.4094 C.ar    
   6 C6            -2.6550     0.5456    -0.0716 C.ar    
   7 Cl7           -4.3450    -2.9272    -1.0703 Cl      
   8 N8            -0.6398     1.4417     0.2122 N.am    
   9 C9            -1.5334     2.3155     0.6723 C.2     
  10 N10           -2.7689     1.8581     0.3833 N.am    
  11 C11            0.5110    -1.6061     0.0339 C.3     
  12 N12            1.4977    -0.6579    -0.4452 N.3     
  13 C13            1.6369     0.5629     0.2903 C.3     
  14 C14            0.7412     1.6658    -0.2079 C.3     
  15 S15           -1.1742     3.7747     1.4923 S.2     
  16 C16            3.0905     1.0303     0.1946 C.3     
  17 C17            2.8011    -1.3071    -0.6391 C.3     
  18 C18            2.6809    -2.3670    -1.7036 C.2     
  19 C19            3.0519    -3.5971    -1.4480 C.2     
  20 C20            3.7144    -3.9270    -0.1353 C.3     
  21 C21            2.8160    -4.6823    -2.4667 C.3     
  22 H22           -1.5523    -3.0873    -0.6013 H       
  23 H23           -4.6392    -0.1463    -0.5077 H       
  24 H24           -3.5953     2.3575     0.4758 H       
  25 H25            0.6827    -1.7922     1.0941 H       
  26 H26            0.6240    -2.5426    -0.5124 H       
  27 H27            1.4031     0.3688     1.3371 H       
  28 H28            0.7843     1.6988    -1.2965 H       
  29 H29            1.0881     2.6182     0.1931 H       
  30 H30            3.3657     1.1494    -0.8534 H       
  31 H31            3.2000     1.9847     0.7097 H       
  32 H32            3.7416     0.2899     0.6593 H       
  33 H33            3.5352    -0.5631    -0.9484 H       
  34 H34            3.1211    -1.7663     0.2963 H       
  35 H35            2.2889    -2.1124    -2.6773 H       
  36 H36            2.9512    -4.1117     0.6206 H       
  37 H37            4.3317    -4.8175    -0.2536 H       
  38 H38            4.3396    -3.0903     0.1765 H       
  39 H39            2.3303    -4.2570    -3.3449 H       
  40 H40            3.7703    -5.1221    -2.7566 H       
  41 H41            2.1769    -5.4528    -2.0355 H       
@<TRIPOS>BOND
   1    1    2 ar
   2    1    8 1
   3    1    6 ar
   4    2    3 ar
   5    2   11 1
   6    3    4 ar
   7    3   22 1
   8    4    5 ar
   9    4    7 1
  10    5    6 ar
  11    5   23 1
  12    6   10 1
  13    8    9 am
  14    8   14 1
  15    9   10 am
  16    9   15 2
  17   10   24 1
  18   11   12 1
  19   11   25 1
  20   11   26 1
  21   12   13 1
  22   12   17 1
  23   13   14 1
  24   13   16 1
  25   13   27 1
  26   14   28 1
  27   14   29 1
  28   16   30 1
  29   16   31 1
  30   16   32 1
  31   17   18 1
  32   17   33 1
  33   17   34 1
  34   18   19 2
  35   18   35 1
  36   19   20 1
  37   19   21 1
  38   20   36 1
  39   20   37 1
  40   20   38 1
  41   21   39 1
  42   21   40 1
  43   21   41 1

#	End of record

