#	Name: ASD01140719
#	Creating user name:	WinNT
#	Creation time:	15. 06. 2019 19:01

#	Modifying user name:	WinNT
#	Modification time:	15. 06. 2019 19:01

#	Program:	/corina/corina34_cracker 3.40 0067  02.08.2006

@<TRIPOS>MOLECULE
ASD01140719
  39   42    0    0    0
SMALL
NO_CHARGES


@<TRIPOS>ATOM
   1 N1            -0.0161     1.3387     0.0094 N.pl3   
   2 C2             0.0021    -0.0041     0.0020 C.2     
   3 C3             1.1791    -0.7099    -0.0125 C.2     
   4 C4             2.4648     0.0244    -0.0208 C.2     
   5 C5             2.4001     1.4980    -0.0140 C.ar    
   6 C6             3.5552     2.2748    -0.0208 C.ar    
   7 C7             3.4556     3.6493    -0.0139 C.ar    
   8 C8             2.2051     4.2589     0.0003 C.ar    
   9 C9             1.0507     3.4953     0.0077 C.ar    
  10 C10            1.1344     2.1083     0.0025 C.ar    
  11 N11            2.8977    -2.1590    -0.0352 N.am    
  12 N12            3.4184    -0.8626    -0.0338 N.2     
  13 C13            1.5477    -2.1223    -0.0226 C.2     
  14 O14            0.7886    -3.0779    -0.0196 O.2     
  15 O15            2.1164     5.6146     0.0075 O.3     
  16 C16            3.3445     6.3451    -0.0002 C.3     
  17 H17            3.9114     6.0935    -0.8966 H       
  18 H18            3.1315     7.4141     0.0067 H       
  19 H19            3.9275     6.0851     0.8833 H       
  20 C20            3.6665    -3.3304    -0.0483 C.ar    
  21 C21            5.0530    -3.2514    -0.0606 C.ar    
  22 C22            5.8098    -4.4060    -0.0735 C.ar    
  23 C23            5.1856    -5.6451    -0.0746 C.ar    
  24 C24            3.8006    -5.7249    -0.0624 C.ar    
  25 C25            3.0424    -4.5711    -0.0432 C.ar    
  26 O26            5.9316    -6.7816    -0.0883 O.3     
  27 C27            5.2231    -8.0227    -0.0886 C.3     
  28 H28           -0.8748     1.7899     0.0158 H       
  29 H29           -0.9340    -0.5427     0.0080 H       
  30 H30            4.5261     1.8019    -0.0311 H       
  31 H31            4.3501     4.2544    -0.0192 H       
  32 H32            0.0845     3.9777     0.0194 H       
  33 H33            5.5390    -2.2869    -0.0604 H       
  34 H34            6.8881    -4.3447    -0.0830 H       
  35 H35            3.3154    -6.6897    -0.0636 H       
  36 H36            1.9643    -4.6334    -0.0291 H       
  37 H37            5.9354    -8.8476    -0.1001 H       
  38 H38            4.6053    -8.0886     0.8069 H       
  39 H39            4.5883    -8.0784    -0.9729 H       
@<TRIPOS>BOND
   1    1    2 1
   2    1   10 1
   3    1   28 1
   4    2    3 2
   5    2   29 1
   6    3    4 1
   7    3   13 1
   8    4    5 1
   9    4   12 2
  10    5    6 ar
  11    5   10 ar
  12    6    7 ar
  13    6   30 1
  14    7    8 ar
  15    7   31 1
  16    8    9 ar
  17    8   15 1
  18    9   10 ar
  19    9   32 1
  20   11   12 1
  21   11   13 am
  22   11   20 1
  23   13   14 2
  24   15   16 1
  25   16   17 1
  26   16   18 1
  27   16   19 1
  28   20   21 ar
  29   20   25 ar
  30   21   22 ar
  31   21   33 1
  32   22   23 ar
  33   22   34 1
  34   23   24 ar
  35   23   26 1
  36   24   25 ar
  37   24   35 1
  38   25   36 1
  39   26   27 1
  40   27   37 1
  41   27   38 1
  42   27   39 1

#	End of record

