#	Name: ASD01870713
#	Creating user name:	WinNT
#	Creation time:	15. 06. 2019 19:39

#	Modifying user name:	WinNT
#	Modification time:	15. 06. 2019 19:39

#	Program:	/corina/corina34_cracker 3.40 0067  02.08.2006

@<TRIPOS>MOLECULE
ASD01870713
  44   47    0    0    0
SMALL
NO_CHARGES


@<TRIPOS>ATOM
   1 C1            -0.0908     1.1855    -0.2229 C.ar    
   2 C2            -0.0717    -0.1956    -0.2664 C.ar    
   3 C3             1.1308    -0.8792    -0.2869 C.ar    
   4 C4             2.3282    -0.1896    -0.2640 C.ar    
   5 C5             1.1077     1.9023    -0.1996 C.ar    
   6 C6             1.3588     3.3539    -0.1537 C.2     
   7 C7             2.3318     1.2064    -0.2200 C.ar    
   8 C8             3.4518     2.1640    -0.1889 C.2     
   9 C9             2.8560     3.5511    -0.1466 C.3     
  10 C10            3.2828     4.3389    -1.3584 C.ar    
  11 C11            3.9298     5.5505    -1.2025 C.ar    
  12 C12            4.3213     6.2731    -2.3140 C.ar    
  13 C13            4.0660     5.7839    -3.5814 C.ar    
  14 C14            3.4198     4.5719    -3.7374 C.ar    
  15 C15            3.0323     3.8472    -2.6258 C.ar    
  16 O16            0.5189     4.2278    -0.1269 O.2     
  17 O17            4.6325     1.8892    -0.1959 O.2     
  18 C18            4.4919     6.5722    -4.7932 C.3     
  19 C19            5.8875     6.1663    -5.1915 C.2     
  20 C20            6.5353     6.7982    -6.3569 C.ar    
  21 O21            6.4778     5.3208    -4.5545 O.2     
  22 N22            5.8428     7.6353    -7.1228 N.ar    
  23 C23            7.8714     6.5169    -6.6430 C.ar    
  24 C24            8.4656     7.1190    -7.7410 C.ar    
  25 C25            7.7048     7.9808    -8.5150 C.ar    
  26 C26            6.3828     8.2189    -8.1691 C.ar    
  27 C27            8.6575     5.5726    -5.7705 C.3     
  28 H28           -1.0339     1.7116    -0.2113 H       
  29 H29           -1.0015    -0.7447    -0.2842 H       
  30 H30            1.1339    -1.9587    -0.3205 H       
  31 H31            3.2625    -0.7310    -0.2799 H       
  32 H32            3.1638     4.0645     0.7643 H       
  33 H33            4.1292     5.9326    -0.2122 H       
  34 H34            4.8261     7.2200    -2.1921 H       
  35 H35            3.2201     4.1899    -4.7276 H       
  36 H36            2.5307     2.8986    -2.7476 H       
  37 H37            3.8062     6.3716    -5.6165 H       
  38 H38            4.4761     7.6364    -4.5583 H       
  39 H39            9.4983     6.9211    -7.9877 H       
  40 H40            8.1384     8.4657    -9.3772 H       
  41 H41            5.7890     8.8933    -8.7682 H       
  42 H42            8.4589     4.5453    -6.0759 H       
  43 H43            9.7220     5.7831    -5.8740 H       
  44 H44            8.3602     5.7063    -4.7303 H       
@<TRIPOS>BOND
   1    1    2 ar
   2    1    5 ar
   3    1   28 1
   4    2    3 ar
   5    2   29 1
   6    3    4 ar
   7    3   30 1
   8    4    7 ar
   9    4   31 1
  10    5    7 ar
  11    5    6 1
  12    6    9 1
  13    6   16 2
  14    7    8 1
  15    8    9 1
  16    8   17 2
  17    9   10 1
  18    9   32 1
  19   10   11 ar
  20   10   15 ar
  21   11   12 ar
  22   11   33 1
  23   12   13 ar
  24   12   34 1
  25   13   14 ar
  26   13   18 1
  27   14   15 ar
  28   14   35 1
  29   15   36 1
  30   18   19 1
  31   18   37 1
  32   18   38 1
  33   19   20 1
  34   19   21 2
  35   20   23 ar
  36   20   22 ar
  37   22   26 ar
  38   23   24 ar
  39   23   27 1
  40   24   25 ar
  41   24   39 1
  42   25   26 ar
  43   25   40 1
  44   26   41 1
  45   27   42 1
  46   27   43 1
  47   27   44 1

#	End of record

