#	Name: ASD01151050
#	Creating user name:	WinNT
#	Creation time:	15. 06. 2019 19:05

#	Modifying user name:	WinNT
#	Modification time:	15. 06. 2019 19:05

#	Program:	/corina/corina34_cracker 3.40 0067  02.08.2006

@<TRIPOS>MOLECULE
ASD01151050
  52   54    0    0    0
SMALL
NO_CHARGES


@<TRIPOS>ATOM
   1 O1            -0.7922    -1.4150    -0.6248 O.2     
   2 C2            -0.6024    -0.2158    -0.6864 C.2     
   3 C3             0.6553     0.3048    -1.2628 C.ar    
   4 C4             1.6270    -0.5779    -1.7373 C.ar    
   5 C5             2.7986    -0.0854    -2.2740 C.ar    
   6 C6             3.0117     1.2800    -2.3421 C.ar    
   7 C7             2.0526     2.1603    -1.8735 C.ar    
   8 C8             0.8740     1.6813    -1.3402 C.ar    
   9 N9            -1.5410     0.6391    -0.2341 N.am    
  10 C10           -2.7707     0.1507     0.2233 C.ar    
  11 C11           -2.8540    -1.1267     0.7595 C.ar    
  12 C12           -4.0667    -1.6149     1.2133 C.ar    
  13 C13           -5.2021    -0.8367     1.1369 C.ar    
  14 C14           -5.1319     0.4512     0.5991 C.ar    
  15 C15           -3.9071     0.9468     0.1457 C.ar    
  16 F16           -3.8297     2.1907    -0.3757 F       
  17 C17           -6.3465     1.2870     0.5155 C.2     
  18 O18           -6.2826     2.4071     0.0472 O.2     
  19 N19           -7.5259     0.8080     0.9584 N.am    
  20 C20           -8.6606     1.6260     0.9500 C.ar    
  21 C21           -8.5771     2.9372     1.4022 C.ar    
  22 Br22          -6.9289     3.6190     2.0303 Br      
  23 C23           -9.7002     3.7425     1.3919 C.ar    
  24 C24          -10.9055     3.2444     0.9328 C.ar    
  25 C25          -10.9915     1.9397     0.4821 C.ar    
  26 C26           -9.8718     1.1312     0.4843 C.ar    
  27 C27           -9.9670    -0.2902    -0.0071 C.3     
  28 F28          -11.2797    -0.5574    -0.4102 F       
  29 F29           -9.1010    -0.4678    -1.0914 F       
  30 F30           -9.6086    -1.1651     1.0241 F       
  31 C31          -12.1284     4.1250     0.9239 C.3     
  32 C32          -11.8418     5.4039     1.7133 C.3     
  33 F33          -10.8821     6.1643     1.0367 F       
  34 F34          -13.0202     6.1469     1.8413 F       
  35 F35          -11.3609     5.0697     2.9839 F       
  36 C36          -12.4865     4.4859    -0.5192 C.3     
  37 F37          -12.7486     3.3165    -1.2410 F       
  38 F38          -13.6218     5.3034    -0.5274 F       
  39 F39          -11.4165     5.1678    -1.1085 F       
  40 F40          -13.1984     3.4431     1.5133 F       
  41 H41            1.4622    -1.6439    -1.6841 H       
  42 H42            3.5513    -0.7672    -2.6415 H       
  43 H43            3.9309     1.6603    -2.7626 H       
  44 H44            2.2253     3.2250    -1.9293 H       
  45 H45            0.1260     2.3694    -0.9751 H       
  46 H46           -1.3645     1.5929    -0.2256 H       
  47 H47           -1.9689    -1.7423     0.8227 H       
  48 H48           -4.1240    -2.6102     1.6287 H       
  49 H49           -6.1460    -1.2225     1.4924 H       
  50 H50           -7.5878    -0.1040     1.2830 H       
  51 H51           -9.6364     4.7618     1.7432 H       
  52 H52          -11.9347     1.5538     0.1245 H       
@<TRIPOS>BOND
   1    1    2 2
   2    2    3 1
   3    2    9 am
   4    3    4 ar
   5    3    8 ar
   6    4    5 ar
   7    4   41 1
   8    5    6 ar
   9    5   42 1
  10    6    7 ar
  11    6   43 1
  12    7    8 ar
  13    7   44 1
  14    8   45 1
  15    9   10 1
  16    9   46 1
  17   10   11 ar
  18   10   15 ar
  19   11   12 ar
  20   11   47 1
  21   12   13 ar
  22   12   48 1
  23   13   14 ar
  24   13   49 1
  25   14   15 ar
  26   14   17 1
  27   15   16 1
  28   17   18 2
  29   17   19 am
  30   19   20 1
  31   19   50 1
  32   20   21 ar
  33   20   26 ar
  34   21   22 1
  35   21   23 ar
  36   23   24 ar
  37   23   51 1
  38   24   25 ar
  39   24   31 1
  40   25   26 ar
  41   25   52 1
  42   26   27 1
  43   27   28 1
  44   27   29 1
  45   27   30 1
  46   31   32 1
  47   31   36 1
  48   31   40 1
  49   32   33 1
  50   32   34 1
  51   32   35 1
  52   36   37 1
  53   36   38 1
  54   36   39 1

#	End of record

