#	Name: ASD05430088
#	Creating user name:	WinNT
#	Creation time:	15. 06. 2019 20:59

#	Modifying user name:	WinNT
#	Modification time:	15. 06. 2019 20:59

#	Program:	/corina/corina34_cracker 3.40 0067  02.08.2006

@<TRIPOS>MOLECULE
ASD05430088
  62   68    0    0    0
SMALL
NO_CHARGES


@<TRIPOS>ATOM
   1 C1             0.0504     1.1969     0.3739 C.ar    
   2 C2             0.0206    -0.0147    -0.3185 C.ar    
   3 C3             1.1745    -0.5124    -0.9099 C.ar    
   4 C4             2.3559     0.1882    -0.8156 C.ar    
   5 C5             2.3920     1.4017    -0.1237 C.ar    
   6 C6             1.2237     1.9021     0.4726 C.ar    
   7 C7             4.8986    -0.0140     0.2303 C.3     
   8 C8             4.8238     1.4960     0.0679 C.2     
   9 C9             3.6531     2.1539    -0.0198 C.2     
  10 C10            5.9818    -0.3321     1.2682 C.3     
  11 C11            7.3733     0.1563     0.8485 C.3     
  12 N12            7.2917     1.5640     0.4686 N.pl3   
  13 C13            6.1292     2.1912     0.0137 C.2     
  14 N14            6.3967     3.3697    -0.4396 N.2     
  15 C15            9.6229     2.0588    -0.0730 C.ar    
  16 C16           10.7006     2.9084    -0.2359 C.ar    
  17 C17           11.8861     2.4058    -0.7496 C.ar    
  18 C18           11.9433     1.0591    -1.0822 C.ar    
  19 C19           10.8219     0.2697    -0.8907 C.ar    
  20 N20            9.7119     0.7843    -0.3995 N.ar    
  21 F21           13.0777     0.5261    -1.5863 F       
  22 N22           -1.1780    -0.7319    -0.4168 N.pl3   
  23 C23           -1.7332    -1.2384    -1.5638 C.2     
  24 C24           -2.8768    -1.8521    -1.2054 C.2     
  25 N25           -3.0212    -1.7270     0.1223 N.2     
  26 C26           -2.0078    -1.0626     0.6069 C.2     
  27 C27            5.5979     0.0981     2.6851 C.3     
  28 S28            6.5413    -1.2969     3.3604 S.o     
  29 C29            5.9712    -1.7964     1.7120 C.3     
  30 O30            7.9297    -0.9979     3.3109 O.2     
  31 C31           -3.8302    -2.5572    -2.1354 C.3     
  32 C32            8.3318     2.5943     0.4905 C.3     
  33 O33            7.7926     3.6255    -0.3627 O.3     
  34 C34            8.5389     3.1225     1.9114 C.3     
  35 C35            0.5833     3.0023     1.2762 C.3     
  36 C36           -0.7194     2.2227     1.1631 C.3     
  37 H37            1.1450    -1.4505    -1.4443 H       
  38 H38            3.2531    -0.1996    -1.2750 H       
  39 H39            3.9369    -0.3948     0.5741 H       
  40 H40            5.1570    -0.4739    -0.7235 H       
  41 H41            3.6388     3.2338    -0.0140 H       
  42 H42            8.0659     0.0435     1.6826 H       
  43 H43            7.7247    -0.4305    -0.0002 H       
  44 H44           10.6202     3.9512     0.0334 H       
  45 H45           12.7444     3.0466    -0.8880 H       
  46 H46           10.8568    -0.7789    -1.1469 H       
  47 H47           -1.3306    -1.1598    -2.5629 H       
  48 H48           -1.8574    -0.8118     1.6466 H       
  49 H49            6.0086     1.0683     2.9645 H       
  50 H50            4.5279     0.0259     2.8798 H       
  51 H51            4.9733    -2.2350     1.7184 H       
  52 H52            6.6943    -2.4117     1.1767 H       
  53 H53           -3.5453    -3.6058    -2.2212 H       
  54 H54           -4.8431    -2.4872    -1.7388 H       
  55 H55           -3.7919    -2.0886    -3.1188 H       
  56 H56            8.8409     2.3028     2.5633 H       
  57 H57            9.3159     3.8870     1.9052 H       
  58 H58            7.6075     3.5540     2.2779 H       
  59 H59            0.9634     3.0765     2.2951 H       
  60 H60            0.5605     3.9626     0.7610 H       
  61 H61           -1.4867     2.7366     0.5842 H       
  62 H62           -1.0882     1.8482     2.1180 H       
@<TRIPOS>BOND
   1    1    2 ar
   2    1    6 ar
   3    1   36 1
   4    2    3 ar
   5    2   22 1
   6    3    4 ar
   7    3   37 1
   8    4    5 ar
   9    4   38 1
  10    5    6 ar
  11    5    9 1
  12    6   35 1
  13    7    8 1
  14    7   10 1
  15    7   39 1
  16    7   40 1
  17    8    9 2
  18    8   13 1
  19    9   41 1
  20   10   11 1
  21   10   27 1
  22   10   29 1
  23   11   12 1
  24   11   42 1
  25   11   43 1
  26   12   13 1
  27   12   32 1
  28   13   14 2
  29   14   33 1
  30   15   16 ar
  31   15   20 ar
  32   15   32 1
  33   16   17 ar
  34   16   44 1
  35   17   18 ar
  36   17   45 1
  37   18   19 ar
  38   18   21 1
  39   19   20 ar
  40   19   46 1
  41   22   23 1
  42   22   26 1
  43   23   24 2
  44   23   47 1
  45   24   25 1
  46   24   31 1
  47   25   26 2
  48   26   48 1
  49   27   28 1
  50   27   49 1
  51   27   50 1
  52   28   29 1
  53   28   30 2
  54   29   51 1
  55   29   52 1
  56   31   53 1
  57   31   54 1
  58   31   55 1
  59   32   33 1
  60   32   34 1
  61   34   56 1
  62   34   57 1
  63   34   58 1
  64   35   36 1
  65   35   59 1
  66   35   60 1
  67   36   61 1
  68   36   62 1

#	End of record

