#	Name: ASD08150195
#	Creating user name:	WinNT
#	Creation time:	15. 06. 2019 21:15

#	Modifying user name:	WinNT
#	Modification time:	15. 06. 2019 21:15

#	Program:	/corina/corina34_cracker 3.40 0067  02.08.2006

@<TRIPOS>MOLECULE
ASD08150195
  51   55    0    0    0
SMALL
NO_CHARGES


@<TRIPOS>ATOM
   1 C1            -0.2404     1.4654     0.0136 C.2     
   2 C2            -0.1864    -0.0088     0.0050 C.ar    
   3 C3             1.0479    -0.6646    -0.0238 C.ar    
   4 C4             1.0945    -2.0404    -0.0318 C.ar    
   5 C5            -0.0849    -2.7781    -0.0118 C.ar    
   6 C6            -1.3147    -2.1292     0.0168 C.ar    
   7 C7            -1.3689    -0.7532     0.0312 C.ar    
   8 O8             0.7887     2.1111    -0.0042 O.2     
   9 O9            -1.4310     2.0958     0.0357 O.3     
  10 N10            0.0119    -6.1354    -1.2976 N.2     
  11 C11           -0.0334    -4.8412    -1.2074 C.2     
  12 N12           -0.0338    -4.1738    -0.0210 N.am    
  13 C13            0.0154    -4.8510     1.1498 C.2     
  14 C14            0.0679    -6.3186     1.0813 C.ar    
  15 C15            0.1212    -7.1081     2.2283 C.ar    
  16 C16            0.1695    -8.4796     2.1067 C.ar    
  17 C17            0.1659    -9.0781     0.8535 C.ar    
  18 C18            0.1137    -8.3161    -0.2920 C.ar    
  19 C19            0.0637    -6.9240    -0.1950 C.ar    
  20 C20           -0.0894    -4.0369    -2.4806 C.3     
  21 S21           -0.0784    -5.1566    -3.9026 S.3     
  22 N22           -0.1306    -5.6096    -7.1772 N.2     
  23 C23           -0.1640    -5.4337    -8.4663 C.2     
  24 N24           -0.2179    -4.1020    -8.7532 N.pl3   
  25 C25           -0.2172    -3.4241    -7.5604 C.ar    
  26 N26           -0.2563    -2.1427    -7.2092 N.ar    
  27 C27           -0.2425    -1.7939    -5.9397 C.ar    
  28 N28           -0.1908    -2.6794    -4.9619 N.ar    
  29 C29           -0.1486    -3.9841    -5.2159 C.ar    
  30 C30           -0.1609    -4.4058    -6.5569 C.ar    
  31 O31            0.0165    -4.2675     2.2180 O.2     
  32 C32            0.1264    -6.4664     3.5919 C.3     
  33 C33            2.4245    -2.7483    -0.0627 C.3     
  34 H34            1.9638    -0.0925    -0.0400 H       
  35 H35           -2.2282    -2.7051     0.0322 H       
  36 H36           -2.3241    -0.2500     0.0579 H       
  37 H37           -1.4158     3.0627     0.0406 H       
  38 H38            0.2108    -9.0946     2.9936 H       
  39 H39            0.2049   -10.1546     0.7765 H       
  40 H40            0.1118    -8.7928    -1.2611 H       
  41 H41           -1.0021    -3.4412    -2.4943 H       
  42 H42            0.7763    -3.3764    -2.5315 H       
  43 H43           -0.1509    -6.2257    -9.2004 H       
  44 H44           -0.2506    -3.7064    -9.6383 H       
  45 H45           -0.2750    -0.7440    -5.6889 H       
  46 H46           -0.8974    -6.2446     3.8930 H       
  47 H47            0.5774    -7.1484     4.3127 H       
  48 H48            0.7030    -5.5421     3.5562 H       
  49 H49            2.7663    -2.9242     0.9572 H       
  50 H50            2.3166    -3.7020    -0.5794 H       
  51 H51            3.1527    -2.1306    -0.5885 H       
@<TRIPOS>BOND
   1    1    2 1
   2    1    8 2
   3    1    9 1
   4    2    3 ar
   5    2    7 ar
   6    3    4 ar
   7    3   34 1
   8    4    5 ar
   9    4   33 1
  10    5    6 ar
  11    5   12 1
  12    6    7 ar
  13    6   35 1
  14    7   36 1
  15    9   37 1
  16   10   11 2
  17   10   19 1
  18   11   12 1
  19   11   20 1
  20   12   13 am
  21   13   14 1
  22   13   31 2
  23   14   15 ar
  24   14   19 ar
  25   15   16 ar
  26   15   32 1
  27   16   17 ar
  28   16   38 1
  29   17   18 ar
  30   17   39 1
  31   18   19 ar
  32   18   40 1
  33   20   21 1
  34   20   41 1
  35   20   42 1
  36   21   29 1
  37   22   23 2
  38   22   30 1
  39   23   24 1
  40   23   43 1
  41   24   25 1
  42   24   44 1
  43   25   26 ar
  44   25   30 ar
  45   26   27 ar
  46   27   28 ar
  47   27   45 1
  48   28   29 ar
  49   29   30 ar
  50   32   46 1
  51   32   47 1
  52   32   48 1
  53   33   49 1
  54   33   50 1
  55   33   51 1

#	End of record

