#	Name: ASD03430699
#	Creating user name:	WinNT
#	Creation time:	15. 06. 2019 20:41

#	Modifying user name:	WinNT
#	Modification time:	15. 06. 2019 20:41

#	Program:	/corina/corina34_cracker 3.40 0067  02.08.2006

@<TRIPOS>MOLECULE
ASD03430699
  54   60    0    0    0
SMALL
NO_CHARGES


@<TRIPOS>ATOM
   1 C1            -0.0166     1.3732     0.0096 C.ar    
   2 C2             0.0021    -0.0041     0.0020 C.ar    
   3 C3             1.2045    -0.6788    -0.0046 C.ar    
   4 C4             2.4070     0.0233     0.0042 C.ar    
   5 C5             2.3791     1.4127     0.0027 C.ar    
   6 C6             1.1696     2.0973     0.0022 C.ar    
   7 O7             3.4730    -0.8265     0.0260 O.3     
   8 C8             1.5601    -2.1408    -0.0314 C.3     
   9 C9             3.0488    -2.1337    -0.4054 C.3     
  10 C10            0.4358    -3.8550     1.0265 C.ar    
  11 C11            1.3182    -2.8103     1.2891 C.ar    
  12 C12            0.7382    -2.9098    -1.0251 C.2     
  13 N13            0.1161    -3.8865    -0.3352 N.am    
  14 O14            0.6508    -2.6942    -2.2155 O.2     
  15 C15            1.7764    -2.5829     2.5679 C.ar    
  16 C16            1.3611    -3.3966     3.6122 C.ar    
  17 C17            0.4785    -4.4410     3.3629 C.ar    
  18 C18            0.0197    -4.6687     2.0759 C.ar    
  19 O19            1.8289    -3.1623     4.8691 O.3     
  20 C20            1.1050    -3.7641     5.9479 C.3     
  21 C21            0.8246    -5.2275     5.5804 C.3     
  22 O22            0.0533    -5.2472     4.3745 O.3     
  23 C23           -1.1521     2.3776     0.0357 C.3     
  24 C24           -0.4180     3.6799     0.4340 C.3     
  25 O25            0.9261     3.4374    -0.0150 O.3     
  26 C26           -0.7892    -4.8665    -0.9405 C.3     
  27 C27           -2.2202    -4.3261    -0.9096 C.3     
  28 O28           -2.6437    -4.1137     0.4465 O.3     
  29 C29           -4.0304    -4.4453     0.5836 C.3     
  30 C30           -4.5272    -4.9501    -0.7882 C.3     
  31 C31           -3.2046    -5.3776    -1.4809 C.3     
  32 H32           -0.9262    -0.5561     0.0016 H       
  33 H33            3.3066     1.9660     0.0024 H       
  34 H34            3.1780    -2.2469    -1.4818 H       
  35 H35            3.5871    -2.9129     0.1341 H       
  36 H36            2.4609    -1.7695     2.7582 H       
  37 H37           -0.6647    -5.4822     1.8859 H       
  38 H38            1.7010    -3.7217     6.8595 H       
  39 H39            0.1635    -3.2360     6.0987 H       
  40 H40            1.7660    -5.7539     5.4232 H       
  41 H41            0.2643    -5.7072     6.3829 H       
  42 H42           -1.6097     2.4739    -0.9488 H       
  43 H43           -1.8959     2.1052     0.7845 H       
  44 H44           -0.8482     4.5387    -0.0811 H       
  45 H45           -0.4443     3.8231     1.5142 H       
  46 H46           -0.4912    -5.0469    -1.9733 H       
  47 H47           -0.7411    -5.8002    -0.3801 H       
  48 H48           -2.2856    -3.3973    -1.4763 H       
  49 H49           -4.1510    -5.2289     1.3317 H       
  50 H50           -4.5948    -3.5607     0.8786 H       
  51 H51           -5.1958    -5.8026    -0.6690 H       
  52 H52           -5.0143    -4.1484    -1.3433 H       
  53 H53           -3.2837    -5.2935    -2.5647 H       
  54 H54           -2.9156    -6.3867    -1.1870 H       
@<TRIPOS>BOND
   1    1    2 ar
   2    1    6 ar
   3    1   23 1
   4    2    3 ar
   5    2   32 1
   6    3    4 ar
   7    3    8 1
   8    4    5 ar
   9    4    7 1
  10    5    6 ar
  11    5   33 1
  12    6   25 1
  13    7    9 1
  14    8    9 1
  15    8   11 1
  16    8   12 1
  17    9   34 1
  18    9   35 1
  19   10   11 ar
  20   10   13 1
  21   10   18 ar
  22   11   15 ar
  23   12   13 am
  24   12   14 2
  25   13   26 1
  26   15   16 ar
  27   15   36 1
  28   16   17 ar
  29   16   19 1
  30   17   18 ar
  31   17   22 1
  32   18   37 1
  33   19   20 1
  34   20   21 1
  35   20   38 1
  36   20   39 1
  37   21   22 1
  38   21   40 1
  39   21   41 1
  40   23   24 1
  41   23   42 1
  42   23   43 1
  43   24   25 1
  44   24   44 1
  45   24   45 1
  46   26   27 1
  47   26   46 1
  48   26   47 1
  49   27   28 1
  50   27   31 1
  51   27   48 1
  52   28   29 1
  53   29   30 1
  54   29   49 1
  55   29   50 1
  56   30   31 1
  57   30   51 1
  58   30   52 1
  59   31   53 1
  60   31   54 1

#	End of record

