#	Name: ASD07930666
#	Creating user name:	WinNT
#	Creation time:	15. 06. 2019 21:12

#	Modifying user name:	WinNT
#	Modification time:	15. 06. 2019 21:12

#	Program:	/corina/corina34_cracker 3.40 0067  02.08.2006

@<TRIPOS>MOLECULE
ASD07930666
  45   47    0    0    0
SMALL
NO_CHARGES


@<TRIPOS>ATOM
   1 C1            -0.0470     1.4695     0.0229 C.3     
   2 N2             0.7875    -0.4063    -2.1441 N.2     
   3 N3            -0.8967    -1.7769    -1.2803 N.pl3   
   4 C4            -0.9205    -2.8178    -0.2474 C.3     
   5 C5            -1.2378    -2.1762     1.1104 C.3     
   6 S6            -0.0041    -0.8762     1.4301 S.o2    
   7 N7            -0.0244     0.0047     0.0158 N.am    
   8 C8            -0.0194    -0.7177    -1.1690 C.2     
   9 C9             0.4455    -3.5037    -0.1816 C.3     
  10 C10           -1.9800    -3.8356    -0.5829 C.ar    
  11 C11           -2.3028    -4.0855    -1.9022 C.ar    
  12 C12           -3.2792    -5.0240    -2.2122 C.ar    
  13 C13           -3.9284    -5.7088    -1.1938 C.ar    
  14 C14           -3.6012    -5.4546     0.1261 C.ar    
  15 C15           -2.6235    -4.5220     0.4303 C.ar    
  16 O16           -0.4702     0.0286     2.4216 O.2     
  17 O17            1.3046    -1.4266     1.4896 O.2     
  18 N18           -3.6077    -5.2781    -3.5474 N.am    
  19 C19           -3.9489    -6.5239    -3.9321 C.2     
  20 O20           -3.8778    -7.4448    -3.1420 O.2     
  21 C21           -4.4103    -6.7706    -5.3166 C.ar    
  22 N22           -4.4857    -5.7603    -6.1746 N.ar    
  23 C23           -4.8901    -5.9354    -7.4131 C.ar    
  24 C24           -5.2563    -7.1940    -7.8717 C.ar    
  25 C25           -5.1919    -8.2783    -7.0058 C.ar    
  26 C26           -4.7561    -8.0627    -5.7094 C.ar    
  27 F27           -5.6713    -7.3621    -9.1463 F       
  28 F28           -4.2318    -6.1200     1.1185 F       
  29 H29            0.9749     1.8487     0.0197 H       
  30 H30           -0.5707     1.8291    -0.8629 H       
  31 H31           -0.5621     1.8206     0.9170 H       
  32 H32            1.3980     0.3414    -2.0484 H       
  33 H33           -1.4938    -1.8351    -2.0425 H       
  34 H34           -2.2355    -1.7378     1.0855 H       
  35 H35           -1.1873    -2.9316     1.8946 H       
  36 H36            1.2106    -2.7669     0.0631 H       
  37 H37            0.4272    -4.2772     0.5862 H       
  38 H38            0.6720    -3.9557    -1.1473 H       
  39 H39           -1.7967    -3.5513    -2.6927 H       
  40 H40           -4.6881    -6.4387    -1.4317 H       
  41 H41           -2.3688    -4.3248     1.4612 H       
  42 H42           -3.5900    -4.5577    -4.1967 H       
  43 H43           -4.9385    -5.0893    -8.0826 H       
  44 H44           -5.4714    -9.2674    -7.3373 H       
  45 H45           -4.6933    -8.8828    -5.0095 H       
@<TRIPOS>BOND
   1    1    7 1
   2    1   29 1
   3    1   30 1
   4    1   31 1
   5    2    8 2
   6    2   32 1
   7    3    4 1
   8    3    8 1
   9    3   33 1
  10    4    5 1
  11    4    9 1
  12    4   10 1
  13    5    6 1
  14    5   34 1
  15    5   35 1
  16    6    7 am
  17    6   16 2
  18    6   17 2
  19    7    8 1
  20    9   36 1
  21    9   37 1
  22    9   38 1
  23   10   11 ar
  24   10   15 ar
  25   11   12 ar
  26   11   39 1
  27   12   13 ar
  28   12   18 1
  29   13   14 ar
  30   13   40 1
  31   14   15 ar
  32   14   28 1
  33   15   41 1
  34   18   19 am
  35   18   42 1
  36   19   20 2
  37   19   21 1
  38   21   22 ar
  39   21   26 ar
  40   22   23 ar
  41   23   24 ar
  42   23   43 1
  43   24   25 ar
  44   24   27 1
  45   25   26 ar
  46   25   44 1
  47   26   45 1

#	End of record

