#	Name: ASD03330962
#	Creating user name:	WinNT
#	Creation time:	15. 06. 2019 20:38

#	Modifying user name:	WinNT
#	Modification time:	15. 06. 2019 20:38

#	Program:	/corina/corina34_cracker 3.40 0067  02.08.2006

@<TRIPOS>MOLECULE
ASD03330962
  70   73    0    0    0
SMALL
NO_CHARGES


@<TRIPOS>ATOM
   1 N1             0.0821     1.1474    -0.7479 N.pl3   
   2 C2             0.0832    -0.1871    -0.4880 C.2     
   3 C3             1.3026    -1.0254    -0.2062 C.3     
   4 N4             2.1424    -0.3368     0.7863 N.3     
   5 C5             3.0946     0.5677     0.1391 C.3     
   6 C6             2.4945     1.1798    -1.1233 C.3     
   7 C7             1.2635     2.0147    -0.7600 C.3     
   8 C8            -1.2107     1.5177    -0.9791 C.2     
   9 N9            -1.9785     0.4612    -0.8498 N.2     
  10 C10           -1.2107    -0.6076    -0.5439 C.2     
  11 C11           -1.6881    -1.9824    -0.3127 C.2     
  12 O12           -0.8951    -2.8643    -0.0431 O.2     
  13 N13           -3.0035    -2.2627    -0.3999 N.am    
  14 C14            2.8362    -1.3020     1.6493 C.3     
  15 C15           -4.7867    -3.8344    -0.8888 C.2     
  16 C16           -3.4781    -3.6295    -0.1701 C.3     
  17 C17           -3.6795    -3.8539     1.3299 C.3     
  18 C18           -4.7740    -2.9161     1.8435 C.3     
  19 O19           -5.4196    -2.8770    -1.2809 O.2     
  20 C20           -4.0944    -5.3056     1.5772 C.3     
  21 C21           -2.3716    -3.5643     2.0691 C.3     
  22 N22           -5.2537    -5.0816    -1.0959 N.am    
  23 C23           -6.5633    -5.2788    -1.7222 C.3     
  24 C24           -6.6180    -6.6556    -2.4073 C.3     
  25 C25           -7.7551    -7.4429    -1.7240 C.3     
  26 C26           -8.6777    -6.3457    -1.1375 C.3     
  27 C27           -7.6691    -5.2776    -0.6466 C.3     
  28 C28           -1.6701     2.8820    -1.3183 C.ar    
  29 C29           -2.5719     3.0783    -2.3677 C.ar    
  30 C30           -2.9972     4.3561    -2.6787 C.ar    
  31 C31           -2.5322     5.4381    -1.9539 C.ar    
  32 C32           -1.6383     5.2497    -0.9134 C.ar    
  33 C33           -1.2097     3.9779    -0.5885 C.ar    
  34 F34           -3.0264     2.0219    -3.0766 F       
  35 Cl35          -1.0600     6.6152    -0.0108 Cl      
  36 H36            0.9956    -1.9949     0.1862 H       
  37 H37            1.8685    -1.1666    -1.1271 H       
  38 H38            3.3592     1.3655     0.8331 H       
  39 H39            3.9939     0.0113    -0.1253 H       
  40 H40            3.2358     1.8177    -1.6045 H       
  41 H41            2.2031     0.3840    -1.8088 H       
  42 H42            1.1281     2.8048    -1.4986 H       
  43 H43            1.4013     2.4566     0.2268 H       
  44 H44           -3.6360    -1.5594    -0.6150 H       
  45 H45            3.4168    -1.9885     1.0332 H       
  46 H46            3.5033    -0.7694     2.3272 H       
  47 H47            2.1034    -1.8643     2.2281 H       
  48 H48           -2.7412    -4.3383    -0.5478 H       
  49 H49           -5.7058    -3.1224     1.3169 H       
  50 H50           -4.9174    -3.0760     2.9121 H       
  51 H51           -4.4784    -1.8819     1.6673 H       
  52 H52           -3.3048    -5.9730     1.2319 H       
  53 H53           -4.2599    -5.4596     2.6435 H       
  54 H54           -5.0142    -5.5185     1.0324 H       
  55 H55           -2.0760    -2.5300     1.8929 H       
  56 H56           -2.5151    -3.7242     3.1377 H       
  57 H57           -1.5919    -4.2324     1.7032 H       
  58 H58           -4.7227    -5.8486    -0.8302 H       
  59 H59           -6.7503    -4.4910    -2.4519 H       
  60 H60           -6.8324    -6.5359    -3.4693 H       
  61 H61           -5.6701    -7.1770    -2.2737 H       
  62 H62           -8.2951    -8.0447    -2.4550 H       
  63 H63           -7.3581    -8.0731    -0.9282 H       
  64 H64           -9.3294    -5.9359    -1.9091 H       
  65 H65           -9.2619    -6.7369    -0.3046 H       
  66 H66           -7.2582    -5.5580     0.3233 H       
  67 H67           -8.1464    -4.2992    -0.5913 H       
  68 H68           -3.6939     4.5098    -3.4895 H       
  69 H69           -2.8675     6.4346    -2.2007 H       
  70 H70           -0.5161     3.8323     0.2265 H       
@<TRIPOS>BOND
   1    1    2 1
   2    1    7 1
   3    1    8 1
   4    2    3 1
   5    2   10 2
   6    3    4 1
   7    3   36 1
   8    3   37 1
   9    4    5 1
  10    4   14 1
  11    5    6 1
  12    5   38 1
  13    5   39 1
  14    6    7 1
  15    6   40 1
  16    6   41 1
  17    7   42 1
  18    7   43 1
  19    8    9 2
  20    8   28 1
  21    9   10 1
  22   10   11 1
  23   11   12 2
  24   11   13 am
  25   13   16 1
  26   13   44 1
  27   14   45 1
  28   14   46 1
  29   14   47 1
  30   15   19 2
  31   15   22 am
  32   15   16 1
  33   16   17 1
  34   16   48 1
  35   17   18 1
  36   17   20 1
  37   17   21 1
  38   18   49 1
  39   18   50 1
  40   18   51 1
  41   20   52 1
  42   20   53 1
  43   20   54 1
  44   21   55 1
  45   21   56 1
  46   21   57 1
  47   22   23 1
  48   22   58 1
  49   23   24 1
  50   23   27 1
  51   23   59 1
  52   24   25 1
  53   24   60 1
  54   24   61 1
  55   25   26 1
  56   25   62 1
  57   25   63 1
  58   26   27 1
  59   26   64 1
  60   26   65 1
  61   27   66 1
  62   27   67 1
  63   28   29 ar
  64   28   33 ar
  65   29   30 ar
  66   29   34 1
  67   30   31 ar
  68   30   68 1
  69   31   32 ar
  70   31   69 1
  71   32   33 ar
  72   32   35 1
  73   33   70 1

#	End of record

