#	Name: ASD05313089
#	Creating user name:	WinNT
#	Creation time:	15. 06. 2019 20:58

#	Modifying user name:	WinNT
#	Modification time:	15. 06. 2019 20:58

#	Program:	/corina/corina34_cracker 3.40 0067  02.08.2006

@<TRIPOS>MOLECULE
ASD05313089
  37   40    0    0    0
SMALL
NO_CHARGES


@<TRIPOS>ATOM
   1 C1            -0.0725     0.8203     1.0209 C.2     
   2 C2             0.1131    -0.6165     0.5948 C.3     
   3 N3             0.9304     1.7331     1.0470 N.pl3   
   4 N4             1.4566    -0.7172    -0.0060 N.am    
   5 C5             2.5708    -0.0355     0.6701 C.3     
   6 C6             2.3171     1.4767     0.6620 C.3     
   7 N7            -0.9039     2.6443     1.7029 N.2     
   8 N8            -1.1574     1.4122     1.4223 N.2     
   9 C9             0.3723     2.8934     1.4901 C.2     
  10 C10            1.0657     4.1836     1.6962 C.ar    
  11 C11            0.3567     5.2943     2.1585 C.ar    
  12 N12            2.3686     4.2887     1.4470 N.ar    
  13 N13            0.9808     6.4425     2.3409 N.ar    
  14 C14            2.2747     6.5419     2.0866 C.ar    
  15 C15            2.9829     5.4422     1.6329 C.ar    
  16 C16            1.6574    -1.4143    -1.1419 C.2     
  17 O17            2.7496    -1.4047    -1.6759 O.2     
  18 C18            0.5511    -2.1896    -1.7376 C.ar    
  19 C19            0.3199    -2.1374    -3.1155 C.ar    
  20 C20           -0.7155    -2.8647    -3.6661 C.ar    
  21 C21           -1.5247    -3.6454    -2.8556 C.ar    
  22 C22           -1.2996    -3.7000    -1.4883 C.ar    
  23 C23           -0.2650    -2.9825    -0.9277 C.ar    
  24 F24           -2.5370    -4.3555    -3.3997 F       
  25 Cl25           1.3326    -1.1594    -4.1312 Cl      
  26 H26            0.0431    -1.2736     1.4617 H       
  27 H27           -0.6445    -0.8873    -0.1406 H       
  28 H28            2.6420    -0.3871     1.6994 H       
  29 H29            3.5017    -0.2514     0.1457 H       
  30 H30            2.4961     1.8704    -0.3385 H       
  31 H31            2.9877     1.9624     1.3708 H       
  32 H32           -0.7001     5.2138     2.3660 H       
  33 H33            2.7817     7.4836     2.2369 H       
  34 H34            4.0404     5.5281     1.4312 H       
  35 H35           -0.8958    -2.8253    -4.7302 H       
  36 H36           -1.9339    -4.3096    -0.8618 H       
  37 H37           -0.0881    -3.0300     0.1366 H       
@<TRIPOS>BOND
   1    1    2 1
   2    1    3 1
   3    1    8 2
   4    2    4 1
   5    2   26 1
   6    2   27 1
   7    3    6 1
   8    3    9 1
   9    4    5 1
  10    4   16 am
  11    5    6 1
  12    5   28 1
  13    5   29 1
  14    6   30 1
  15    6   31 1
  16    7    8 1
  17    7    9 2
  18    9   10 1
  19   10   11 ar
  20   10   12 ar
  21   11   13 ar
  22   11   32 1
  23   12   15 ar
  24   13   14 ar
  25   14   15 ar
  26   14   33 1
  27   15   34 1
  28   16   17 2
  29   16   18 1
  30   18   19 ar
  31   18   23 ar
  32   19   20 ar
  33   19   25 1
  34   20   21 ar
  35   20   35 1
  36   21   22 ar
  37   21   24 1
  38   22   23 ar
  39   22   36 1
  40   23   37 1

#	End of record

