#	Name: ASD09740131
#	Creating user name:	WinNT
#	Creation time:	15. 06. 2019 21:22

#	Modifying user name:	WinNT
#	Modification time:	15. 06. 2019 21:22

#	Program:	/corina/corina34_cracker 3.40 0067  02.08.2006

@<TRIPOS>MOLECULE
ASD09740131
  59   62    0    0    0
SMALL
NO_CHARGES


@<TRIPOS>ATOM
   1 O1             0.2575     1.3024    -0.1559 O.3     
   2 N2             0.2037     0.0930    -0.0833 N.2     
   3 C3             1.5300     1.6939    -0.3267 C.2     
   4 N4             2.2673     0.5988    -0.3532 N.2     
   5 C5             1.4007    -0.4233    -0.1955 C.2     
   6 C6             1.7423    -1.8673    -0.1558 C.ar    
   7 C7             2.0129     3.0833    -0.4602 C.ar    
   8 C8             0.7390    -2.8186     0.0140 C.ar    
   9 C9             3.0671    -2.2764    -0.2938 C.ar    
  10 C10            3.3792    -3.6201    -0.2561 C.ar    
  11 C11            2.3796    -4.5604    -0.0815 C.ar    
  12 C12            1.0624    -4.1602     0.0503 C.ar    
  13 C13            3.3751     3.3370    -0.6344 C.ar    
  14 C14            3.8242     4.6343    -0.7588 C.ar    
  15 C15            2.9254     5.6906    -0.7114 C.ar    
  16 C16            1.5648     5.4445    -0.5378 C.ar    
  17 C17            1.1074     4.1459    -0.4182 C.ar    
  18 O18            3.3730     6.9676    -0.8341 O.3     
  19 C19            4.7798     7.1479    -1.0090 C.3     
  20 C20            5.0917     8.6411    -1.1276 C.3     
  21 O21            0.6865     6.4818    -0.4917 O.3     
  22 C22           -0.6931     6.1562    -0.3115 C.3     
  23 C23           -1.5215     7.4423    -0.2850 C.3     
  24 C24           -0.0212    -5.1901     0.2407 C.3     
  25 C25            2.7265    -6.0263    -0.0411 C.3     
  26 N26            2.6653    -6.5060     1.3460 N.3     
  27 C27            2.6325    -7.9792     1.3947 C.3     
  28 C28            3.8246    -8.4346     2.2625 C.3     
  29 C29            4.1310    -7.1797     3.1217 C.3     
  30 C30            3.8328    -6.0352     2.1213 C.3     
  31 H31           -0.2899    -2.5071     0.1174 H       
  32 H32            3.8483    -1.5432    -0.4305 H       
  33 H33            4.4057    -3.9383    -0.3634 H       
  34 H34            4.0767     2.5167    -0.6712 H       
  35 H35            4.8780     4.8291    -0.8931 H       
  36 H36            0.0532     3.9536    -0.2836 H       
  37 H37            5.3087     6.7333    -0.1508 H       
  38 H38            5.1017     6.6363    -1.9160 H       
  39 H39            4.5627     9.0557    -1.9857 H       
  40 H40            4.7698     9.1527    -0.2205 H       
  41 H41            6.1647     8.7787    -1.2610 H       
  42 H42           -1.0281     5.5252    -1.1348 H       
  43 H43           -0.8205     5.6225     0.6304 H       
  44 H44           -1.1865     8.0733     0.5382 H       
  45 H45           -1.3941     7.9759    -1.2269 H       
  46 H46           -2.5738     7.1939    -0.1476 H       
  47 H47           -0.0993    -5.4442     1.2977 H       
  48 H48           -0.9719    -4.7858    -0.1071 H       
  49 H49            0.2239    -6.0852    -0.3310 H       
  50 H50            2.0158    -6.5848    -0.6503 H       
  51 H51            3.7335    -6.1723    -0.4320 H       
  52 H52            1.6976    -8.3146     1.8436 H       
  53 H53            2.7299    -8.3858     0.3881 H       
  54 H54            3.5414    -9.2754     2.8956 H       
  55 H55            4.6799    -8.6921     1.6378 H       
  56 H56            3.4679    -7.1263     3.9851 H       
  57 H57            5.1757    -7.1647     3.4322 H       
  58 H58            4.6863    -5.8751     1.4625 H       
  59 H59            3.5880    -5.1177     2.6565 H       
@<TRIPOS>BOND
   1    1    2 1
   2    1    3 1
   3    2    5 2
   4    3    4 2
   5    3    7 1
   6    4    5 1
   7    5    6 1
   8    6    8 ar
   9    6    9 ar
  10    7   13 ar
  11    7   17 ar
  12    8   12 ar
  13    8   31 1
  14    9   10 ar
  15    9   32 1
  16   10   11 ar
  17   10   33 1
  18   11   12 ar
  19   11   25 1
  20   12   24 1
  21   13   14 ar
  22   13   34 1
  23   14   15 ar
  24   14   35 1
  25   15   16 ar
  26   15   18 1
  27   16   17 ar
  28   16   21 1
  29   17   36 1
  30   18   19 1
  31   19   20 1
  32   19   37 1
  33   19   38 1
  34   20   39 1
  35   20   40 1
  36   20   41 1
  37   21   22 1
  38   22   23 1
  39   22   42 1
  40   22   43 1
  41   23   44 1
  42   23   45 1
  43   23   46 1
  44   24   47 1
  45   24   48 1
  46   24   49 1
  47   25   26 1
  48   25   50 1
  49   25   51 1
  50   26   27 1
  51   26   30 1
  52   27   28 1
  53   27   52 1
  54   27   53 1
  55   28   29 1
  56   28   54 1
  57   28   55 1
  58   29   30 1
  59   29   56 1
  60   29   57 1
  61   30   58 1
  62   30   59 1

#	End of record

