#	Name: ASD01910050
#	Creating user name:	WinNT
#	Creation time:	15. 06. 2019 19:55

#	Modifying user name:	WinNT
#	Modification time:	15. 06. 2019 19:55

#	Program:	/corina/corina34_cracker 3.40 0067  02.08.2006

@<TRIPOS>MOLECULE
ASD01910050
  45   48    0    0    0
SMALL
NO_CHARGES


@<TRIPOS>ATOM
   1 C1             0.4477     1.3700    -0.8899 C.ar    
   2 C2             0.4634    -0.0110    -0.8677 C.ar    
   3 C3             1.1999    -0.6812     0.0920 C.ar    
   4 C4             1.9230     0.0279     1.0332 C.ar    
   5 C5             1.9119     1.4110     1.0169 C.ar    
   6 C6             1.1724     2.0867     0.0525 C.ar    
   7 N7             1.1587     3.4881     0.0321 N.pl3   
   8 C8             0.0531     4.2764    -0.0724 C.2     
   9 C9             0.4663     5.5711    -0.0548 C.2     
  10 C10            1.8687     5.5738     0.0643 C.2     
  11 N11            2.2790     4.3238     0.1216 N.2     
  12 N12           -1.2646     3.8350    -0.1788 N.am    
  13 C13           -2.2774     4.7238    -0.1504 C.2     
  14 C14           -3.6748     4.2557    -0.2632 C.ar    
  15 C15           -4.7261     5.1736    -0.2341 C.ar    
  16 C16           -6.0280     4.7301    -0.3403 C.ar    
  17 C17           -6.2929     3.3788    -0.4755 C.ar    
  18 C18           -5.2556     2.4637    -0.5051 C.ar    
  19 C19           -3.9488     2.8943    -0.4051 C.ar    
  20 C20            2.7349     6.7773     0.1209 C.ar    
  21 C21            4.1164     6.6397     0.2401 C.ar    
  22 C22            4.9172     7.7625     0.2918 C.ar    
  23 C23            4.3509     9.0227     0.2260 C.ar    
  24 C24            2.9801     9.1652     0.1075 C.ar    
  25 C25            2.1702     8.0492     0.0491 C.ar    
  26 O26           -2.0415     5.9105    -0.0319 O.2     
  27 F27            2.6180     2.1042     1.9368 F       
  28 N28           -7.6924     2.9100    -0.5885 N.pl3   
  29 O29           -8.6077     3.7132    -0.5624 O.2     
  30 O30           -7.9287     1.7211    -0.7076 O.2     
  31 H31           -0.1243     1.8918    -1.6428 H       
  32 H32           -0.1007    -0.5684    -1.6008 H       
  33 H33            1.2100    -1.7610     0.1065 H       
  34 H34            2.4965    -0.4984     1.7818 H       
  35 H35           -0.1684     6.4425    -0.1204 H       
  36 H36           -1.4528     2.8881    -0.2733 H       
  37 H37           -4.5207     6.2286    -0.1282 H       
  38 H38           -6.8424     5.4391    -0.3176 H       
  39 H39           -5.4692     1.4103    -0.6108 H       
  40 H40           -3.1399     2.1790    -0.4287 H       
  41 H41            4.5595     5.6562     0.2924 H       
  42 H42            5.9881     7.6570     0.3843 H       
  43 H43            4.9812     9.8987     0.2675 H       
  44 H44            2.5431    10.1516     0.0565 H       
  45 H45            1.1001     8.1615    -0.0433 H       
@<TRIPOS>BOND
   1    1    2 ar
   2    1    6 ar
   3    1   31 1
   4    2    3 ar
   5    2   32 1
   6    3    4 ar
   7    3   33 1
   8    4    5 ar
   9    4   34 1
  10    5    6 ar
  11    5   27 1
  12    6    7 1
  13    7    8 1
  14    7   11 1
  15    8    9 2
  16    8   12 1
  17    9   10 1
  18    9   35 1
  19   10   11 2
  20   10   20 1
  21   12   13 am
  22   12   36 1
  23   13   14 1
  24   13   26 2
  25   14   15 ar
  26   14   19 ar
  27   15   16 ar
  28   15   37 1
  29   16   17 ar
  30   16   38 1
  31   17   18 ar
  32   17   28 1
  33   18   19 ar
  34   18   39 1
  35   19   40 1
  36   20   21 ar
  37   20   25 ar
  38   21   22 ar
  39   21   41 1
  40   22   23 ar
  41   22   42 1
  42   23   24 ar
  43   23   43 1
  44   24   25 ar
  45   24   44 1
  46   25   45 1
  47   28   29 2
  48   28   30 2

#	End of record

