#	Name: ASD01881518
#	Creating user name:	WinNT
#	Creation time:	15. 06. 2019 19:42

#	Modifying user name:	WinNT
#	Modification time:	15. 06. 2019 19:42

#	Program:	/corina/corina34_cracker 3.40 0067  02.08.2006

@<TRIPOS>MOLECULE
ASD01881518
  49   52    0    0    0
SMALL
NO_CHARGES


@<TRIPOS>ATOM
   1 C1             0.3120     1.0648     1.6419 C.ar    
   2 C2             0.2330    -0.2243     1.1490 C.ar    
   3 C3             1.3094    -0.7764     0.4641 C.ar    
   4 C4             2.4582    -0.0339     0.2766 C.ar    
   5 C5             2.5433     1.2689     0.7719 C.ar    
   6 C6             1.4567     1.8136     1.4586 C.ar    
   7 C7             3.7741    -0.3195    -0.4024 C.3     
   8 N8             4.5849     0.8944    -0.2536 N.am    
   9 C9             3.8717     1.8098     0.4248 C.2     
  10 C10            5.9474     1.0780    -0.7599 C.3     
  11 C11            5.8917     1.6482    -2.1786 C.3     
  12 C12            7.3146     1.8399    -2.7074 C.3     
  13 O13            4.2646     2.9238     0.7111 O.2     
  14 C14            7.2589     2.4102    -4.1260 C.3     
  15 O15            1.2313    -2.0441    -0.0193 O.3     
  16 C16            0.0453    -2.6980     0.0935 C.ar    
  17 C17           -0.9153    -2.5887    -0.9032 C.ar    
  18 C18           -0.2190    -3.4887     1.2047 C.ar    
  19 C19           -1.4522    -4.1408     1.2742 C.ar    
  20 C20           -2.3636    -3.9744     0.2336 C.ar    
  21 N21           -2.0691    -3.2189    -0.8046 N.ar    
  22 C22           -1.7864    -4.9983     2.4384 C.ar    
  23 C23           -3.0189    -5.6451     2.4995 C.ar    
  24 C24           -0.8664    -5.1640     3.4717 C.ar    
  25 C25           -1.1824    -5.9625     4.5521 C.ar    
  26 C26           -2.4096    -6.5981     4.6101 C.ar    
  27 C27           -3.3245    -6.4413     3.5847 C.ar    
  28 H28           -0.5289     1.4901     2.1697 H       
  29 H29           -0.6664    -0.8037     1.2966 H       
  30 H30            1.5117     2.8204     1.8456 H       
  31 H31            4.2694    -1.1622     0.0799 H       
  32 H32            3.6117    -0.5344    -1.4586 H       
  33 H33            6.4859     1.7690    -0.1114 H       
  34 H34            6.4621     0.1173    -0.7744 H       
  35 H35            5.3532     0.9571    -2.8271 H       
  36 H36            5.3769     2.6089    -2.1641 H       
  37 H37            7.8531     2.5310    -2.0589 H       
  38 H38            7.8294     0.8793    -2.7218 H       
  39 H39            6.7442     3.3708    -4.1116 H       
  40 H40            8.2726     2.5468    -4.5027 H       
  41 H41            6.7204     1.7191    -4.7745 H       
  42 H42           -0.7145    -1.9786    -1.7714 H       
  43 H43            0.5102    -3.5966     1.9940 H       
  44 H44           -3.3202    -4.4738     0.2766 H       
  45 H45           -3.7340    -5.5233     1.6994 H       
  46 H46            0.0923    -4.6687     3.4271 H       
  47 H47           -0.4701    -6.0917     5.3536 H       
  48 H48           -2.6527    -7.2224     5.4573 H       
  49 H49           -4.2814    -6.9396     3.6352 H       
@<TRIPOS>BOND
   1    1    2 ar
   2    1    6 ar
   3    1   28 1
   4    2    3 ar
   5    2   29 1
   6    3    4 ar
   7    3   15 1
   8    4    5 ar
   9    4    7 1
  10    5    6 ar
  11    5    9 1
  12    6   30 1
  13    7    8 1
  14    7   31 1
  15    7   32 1
  16    8    9 am
  17    8   10 1
  18    9   13 2
  19   10   11 1
  20   10   33 1
  21   10   34 1
  22   11   12 1
  23   11   35 1
  24   11   36 1
  25   12   14 1
  26   12   37 1
  27   12   38 1
  28   14   39 1
  29   14   40 1
  30   14   41 1
  31   15   16 1
  32   16   17 ar
  33   16   18 ar
  34   17   21 ar
  35   17   42 1
  36   18   19 ar
  37   18   43 1
  38   19   20 ar
  39   19   22 1
  40   20   21 ar
  41   20   44 1
  42   22   23 ar
  43   22   24 ar
  44   23   27 ar
  45   23   45 1
  46   24   25 ar
  47   24   46 1
  48   25   26 ar
  49   25   47 1
  50   26   27 ar
  51   26   48 1
  52   27   49 1

#	End of record

