#	Name: ASD09116121
#	Creating user name:	WinNT
#	Creation time:	15. 06. 2019 21:20

#	Modifying user name:	WinNT
#	Modification time:	15. 06. 2019 21:20

#	Program:	/corina/corina34_cracker 3.40 0067  02.08.2006

@<TRIPOS>MOLECULE
ASD09116121
  31   33    0    0    0
SMALL
NO_CHARGES


@<TRIPOS>ATOM
   1 C1            -0.0169     1.3940     0.0097 C.ar    
   2 C2             0.0021    -0.0041     0.0020 C.ar    
   3 C3             1.2220    -0.6448     0.0188 C.ar    
   4 C4             2.3703     0.1532     0.0228 C.ar    
   5 N5             2.2589     1.4737     0.0091 N.ar    
   6 N6             1.1201     2.0699     0.0025 N.ar    
   7 C7            -1.2905    -0.7653    -0.0532 C.3     
   8 C8            -1.9621    -0.7973     1.3169 C.3     
   9 C9            -1.9146     0.5792     1.9750 C.3     
  10 C10           -2.2728     1.6674     1.0001 C.ar    
  11 C11           -1.3297     2.0786     0.0567 C.ar    
  12 C12           -1.6320     3.1114    -0.8238 C.ar    
  13 C13           -2.8756     3.7109    -0.7738 C.ar    
  14 C14           -3.8155     3.2846     0.1469 C.ar    
  15 C15           -3.5145     2.2646     1.0330 C.ar    
  16 N16            4.7494     0.3415     0.0453 N.3     
  17 N17            3.6279    -0.4383     0.0414 N.pl3   
  18 H18            1.2887    -1.7227     0.0289 H       
  19 H19           -1.9585    -0.2857    -0.7686 H       
  20 H20           -1.0914    -1.7863    -0.3787 H       
  21 H21           -3.0016    -1.1034     1.1999 H       
  22 H22           -1.4462    -1.5169     1.9526 H       
  23 H23           -2.6180     0.6007     2.8074 H       
  24 H24           -0.9088     0.7581     2.3550 H       
  25 H25           -0.8980     3.4436    -1.5431 H       
  26 H26           -3.1142     4.5144    -1.4548 H       
  27 H27           -4.7896     3.7500     0.1747 H       
  28 H28           -4.2525     1.9371     1.7503 H       
  29 H29            5.5840    -0.2254     0.0594 H       
  30 H30            4.7540     0.9722    -0.7423 H       
  31 H31            3.7092    -1.4048     0.0517 H       
@<TRIPOS>BOND
   1    1    2 ar
   2    1    6 ar
   3    1   11 1
   4    2    3 ar
   5    2    7 1
   6    3    4 ar
   7    3   18 1
   8    4    5 ar
   9    4   17 1
  10    5    6 ar
  11    7    8 1
  12    7   19 1
  13    7   20 1
  14    8    9 1
  15    8   21 1
  16    8   22 1
  17    9   10 1
  18    9   23 1
  19    9   24 1
  20   10   11 ar
  21   10   15 ar
  22   11   12 ar
  23   12   13 ar
  24   12   25 1
  25   13   14 ar
  26   13   26 1
  27   14   15 ar
  28   14   27 1
  29   15   28 1
  30   16   17 1
  31   16   29 1
  32   16   30 1
  33   17   31 1

#	End of record

