#	Name: ASD08940001
#	Creating user name:	WinNT
#	Creation time:	15. 06. 2019 21:20

#	Modifying user name:	WinNT
#	Modification time:	15. 06. 2019 21:20

#	Program:	/corina/corina34_cracker 3.40 0067  02.08.2006

@<TRIPOS>MOLECULE
ASD08940001
 121  128    0    0    0
SMALL
NO_CHARGES


@<TRIPOS>ATOM
   1 C1            -0.4996    -2.0516     0.3129 C.3     
   2 C2            -1.2278    -1.5790     1.5874 C.3     
   3 C3            -0.7534    -2.4141     2.7780 C.3     
   4 C4            -0.9110    -3.9095     2.4952 C.3     
   5 O5            -0.3024    -4.2514     1.2441 O.3     
   6 C6            -0.8534    -3.5322     0.1427 C.3     
   7 C7            -0.6466    -1.7374    -2.1259 C.3     
   8 O8            -0.9262    -1.2948    -0.8061 O.3     
   9 C9            -0.3435    -4.0512    -1.2005 C.3     
  10 C10           -1.0159    -3.2146    -2.2835 C.3     
  11 C11           -1.2292    -1.4764    -4.5405 C.3     
  12 C12           -1.5060    -0.9426    -3.1294 C.3     
  13 O13           -0.6909    -3.6504    -3.6054 O.3     
  14 C14           -1.5198    -2.9806    -4.5567 C.3     
  15 C15           -1.9376    -1.3003    -6.8259 C.3     
  16 O16           -2.0382    -0.7742    -5.4877 O.3     
  17 C17           -1.3634    -3.5326    -5.9764 C.3     
  18 C18           -2.4253    -2.7313    -6.7693 C.3     
  19 O19           -2.7970    -3.2804    -7.9848 O.3     
  20 C20           -3.9093    -2.7746    -8.6645 C.3     
  21 O21           -4.7790    -1.0727   -10.1069 O.3     
  22 C22           -3.5748    -1.7173    -9.6768 C.3     
  23 C23           -4.8312    -3.8217    -9.2805 C.3     
  24 C24           -6.0177    -3.1902   -10.0262 C.3     
  25 C25           -6.7093    -1.3994   -11.6242 C.3     
  26 C26           -5.5284    -2.0150   -10.8789 C.3     
  27 O27           -6.5894    -4.1645   -10.9220 O.3     
  28 C28           -7.5647    -3.7595   -11.8558 C.3     
  29 C29           -7.2232    -2.4806   -12.5862 C.3     
  30 C30           -8.0012    -4.8512   -12.7786 C.2     
  31 C31           -8.5597    -4.8974   -13.8726 C.2     
  32 O32           -8.0777    -2.0802   -13.5542 O.3     
  33 C33           -8.2063    -2.6517   -14.8236 C.3     
  34 C34           -9.0957    -3.8834   -14.8533 C.3     
  35 C35           -8.7843    -1.6220   -15.7609 C.2     
  36 C36           -8.9838    -0.3778   -15.3395 C.2     
  37 C37           -9.5478     0.6271   -16.2541 C.2     
  38 C38           -9.7473     1.8713   -15.8327 C.2     
  39 C39          -10.3251     2.9006   -16.7696 C.3     
  40 C40          -11.5521     3.5147   -16.1463 C.2     
  41 C41          -11.6345     4.8145   -16.0055 C.2     
  42 C42           -0.2357    -4.7051     3.6157 C.3     
  43 C43           -0.4947    -6.1987     3.4084 C.3     
  44 C44            0.1801    -6.9936     4.5280 C.3     
  45 O45           -0.0618    -8.3886     4.3343 O.3     
  46 C46            1.0039    -1.9044     0.5581 C.3     
  47 C47            0.8231    -1.5179    -2.4883 C.3     
  48 H48           -0.1830    -1.3102    -4.8037 H       
  49 H49           -0.8591    -1.3687    -7.0138 H       
  50 H50           -3.2294    -2.2783   -10.5803 H       
  51 C51           -2.4665    -0.3305    -7.8407 C.3     
  52 C52           -2.4179    -0.8156    -9.2817 C.3     
  53 H53           -4.8339    -2.4326   -11.6378 H       
  54 H54           -6.2839    -2.7579   -13.1546 H       
  55 O55           -9.0828    -4.4543   -16.1604 O.3     
  56 C56          -10.5234    -3.5120   -14.4536 C.3     
  57 O57           -2.6365    -1.7377     1.4158 O.3     
  58 H58           -1.9423    -3.6404     0.1730 H       
  59 H59           -2.1052    -3.3068    -2.1622 H       
  60 H60           -2.5644    -3.1286    -4.2470 H       
  61 H61           -3.2420    -2.7688    -6.0404 H       
  62 C62           -4.7319    -2.0591    -7.5977 C.3     
  63 C63           -7.0916    -2.7616    -9.0297 C.3     
  64 C64           -8.9139    -3.4792   -11.1545 C.3     
  65 H65           -0.9923    -0.5282     1.7540 H       
  66 H66            0.2755    -2.1814     3.0344 H       
  67 H67           -1.3755    -2.1598     3.6481 H       
  68 H68           -1.9721    -4.1563     2.4597 H       
  69 H69            0.7363    -3.9779    -1.2623 H       
  70 H70           -0.6441    -5.0993    -1.3179 H       
  71 H71           -2.5607    -1.0787    -2.8852 H       
  72 H72           -1.2484     0.1101    -3.0703 H       
  73 H73           -0.3786    -3.3062    -6.3722 H       
  74 H74           -1.6028    -4.5875    -6.0198 H       
  75 H75           -4.2448    -4.4221    -9.9969 H       
  76 H76           -5.1973    -4.4893    -8.4952 H       
  77 H77           -7.4910    -1.0859   -10.9488 H       
  78 H78           -6.3562    -0.5437   -12.2055 H       
  79 H79           -7.7471    -5.8303   -12.3818 H       
  80 H80           -8.7061    -5.9130   -14.2490 H       
  81 H81           -7.2171    -2.9534   -15.1674 H       
  82 H82           -9.0362    -1.8956   -16.7748 H       
  83 H83           -8.7319    -0.1041   -14.3255 H       
  84 H84           -9.7997     0.3534   -17.2680 H       
  85 H85           -9.4955     2.1450   -14.8188 H       
  86 H86           -9.5845     3.6783   -16.9563 H       
  87 H87          -10.5961     2.4233   -17.7113 H       
  88 H88          -12.3634     2.8832   -15.8157 H       
  89 H89          -10.8231     5.4460   -16.3360 H       
  90 H90          -12.5138     5.2546   -15.5588 H       
  91 H91            0.8378    -4.5167     3.5990 H       
  92 H92           -0.6439    -4.3957     4.5779 H       
  93 H93           -1.5681    -6.3870     3.4251 H       
  94 H94           -0.0864    -6.5080     2.4462 H       
  95 H95            1.2536    -6.8052     4.5113 H       
  96 H96           -0.2281    -6.6842     5.4902 H       
  97 H97            0.3378    -8.9544     5.0091 H       
  98 H98            1.5528    -2.4098    -0.2365 H       
  99 H99            1.2688    -0.8471     0.5669 H       
 100 H100           1.2609    -2.3514     1.5184 H       
 101 H101           1.4487    -2.1723    -1.8812 H       
 102 H102           0.9752    -1.7460    -3.5432 H       
 103 H103           1.0929    -0.4790    -2.2986 H       
 104 H104          -3.4456     0.0588    -7.5778 H       
 105 H105          -1.8052     0.5694    -7.7906 H       
 106 H106          -1.4654    -1.3511    -9.4433 H       
 107 H107          -2.3938     0.0623    -9.9509 H       
 108 H108          -9.6313    -5.2457   -16.2493 H       
 109 H109         -10.9151    -2.7718   -15.1513 H       
 110 H110         -11.1511    -4.4028   -14.4786 H       
 111 H111         -10.5222    -3.0966   -13.4459 H       
 112 H112          -3.1596    -1.4597     2.1802 H       
 113 H113          -4.0680    -1.4859    -6.9506 H       
 114 H114          -5.4422    -1.3858    -8.0774 H       
 115 H115          -5.2734    -2.7945    -7.0026 H       
 116 H116          -6.6169    -2.3710    -8.1296 H       
 117 H117          -7.7143    -1.9870    -9.4774 H       
 118 H118          -7.7105    -3.6206    -8.7706 H       
 119 H119          -8.8256    -2.5819   -10.5421 H       
 120 H120          -9.6900    -3.3315   -11.9055 H       
 121 H121          -9.1774    -4.3266   -10.5216 H       
@<TRIPOS>BOND
   1    1    6 1
   2    1   46 1
   3    1    2 1
   4    1    8 1
   5    2    3 1
   6    2   57 1
   7    2   65 1
   8    3    4 1
   9    3   66 1
  10    3   67 1
  11    4    5 1
  12    4   42 1
  13    4   68 1
  14    5    6 1
  15    6    9 1
  16    6   58 1
  17    7    8 1
  18    7   10 1
  19    7   47 1
  20    7   12 1
  21    9   10 1
  22    9   69 1
  23    9   70 1
  24   10   13 1
  25   10   59 1
  26   11   12 1
  27   11   14 1
  28   11   48 1
  29   11   16 1
  30   12   71 1
  31   12   72 1
  32   13   14 1
  33   14   17 1
  34   14   60 1
  35   15   16 1
  36   15   18 1
  37   15   49 1
  38   15   51 1
  39   17   18 1
  40   17   73 1
  41   17   74 1
  42   18   19 1
  43   18   61 1
  44   19   20 1
  45   20   23 1
  46   20   22 1
  47   20   62 1
  48   21   22 1
  49   21   26 1
  50   22   50 1
  51   22   52 1
  52   23   24 1
  53   23   75 1
  54   23   76 1
  55   24   27 1
  56   24   26 1
  57   24   63 1
  58   25   26 1
  59   25   29 1
  60   25   77 1
  61   25   78 1
  62   26   53 1
  63   27   28 1
  64   28   29 1
  65   28   30 1
  66   28   64 1
  67   29   32 1
  68   29   54 1
  69   30   31 2
  70   30   79 1
  71   31   34 1
  72   31   80 1
  73   32   33 1
  74   33   34 1
  75   33   35 1
  76   33   81 1
  77   34   55 1
  78   34   56 1
  79   35   36 2
  80   35   82 1
  81   36   37 1
  82   36   83 1
  83   37   38 2
  84   37   84 1
  85   38   39 1
  86   38   85 1
  87   39   40 1
  88   39   86 1
  89   39   87 1
  90   40   41 2
  91   40   88 1
  92   41   89 1
  93   41   90 1
  94   42   43 1
  95   42   91 1
  96   42   92 1
  97   43   44 1
  98   43   93 1
  99   43   94 1
 100   44   45 1
 101   44   95 1
 102   44   96 1
 103   45   97 1
 104   46   98 1
 105   46   99 1
 106   46  100 1
 107   47  101 1
 108   47  102 1
 109   47  103 1
 110   51   52 1
 111   51  104 1
 112   51  105 1
 113   52  106 1
 114   52  107 1
 115   55  108 1
 116   56  109 1
 117   56  110 1
 118   56  111 1
 119   57  112 1
 120   62  113 1
 121   62  114 1
 122   62  115 1
 123   63  116 1
 124   63  117 1
 125   63  118 1
 126   64  119 1
 127   64  120 1
 128   64  121 1

#	End of record

