#	Name: ASD01230029
#	Creating user name:	WinNT
#	Creation time:	15. 06. 2019 19:11

#	Modifying user name:	WinNT
#	Modification time:	15. 06. 2019 19:11

#	Program:	/corina/corina34_cracker 3.40 0067  02.08.2006

@<TRIPOS>MOLECULE
ASD01230029
  45   47    0    0    0
SMALL
NO_CHARGES


@<TRIPOS>ATOM
   1 C1            -0.0187     1.5258     0.0104 C.3     
   2 C2             0.0021    -0.0041     0.0020 C.3     
   3 C3            -1.4333    -0.5336     0.0129 C.3     
   4 S4             0.8511    -0.5891    -1.4904 S.o2    
   5 O5             1.0544    -1.9942    -1.4301 O.2     
   6 O6             0.3011     0.0225    -2.6492 O.2     
   7 N7             2.3749     0.0492    -1.3760 N.am    
   8 C8             4.2206    -1.4886    -0.7731 C.3     
   9 C9             3.2670    -0.3739    -0.2937 C.3     
  10 C10            4.2446     0.7584     0.0857 C.3     
  11 C11            5.5396     0.0605     0.4434 C.ar    
  12 C12            6.6392     0.5207     1.1447 C.ar    
  13 C13            7.7332    -0.3140     1.3545 C.ar    
  14 C14            7.7144    -1.6148     0.8551 C.ar    
  15 C15            6.6138    -2.0654     0.1576 C.ar    
  16 C16            5.5260    -1.2317    -0.0502 C.ar    
  17 C17            8.9413     1.4786     2.6083 C.ar    
  18 C18            8.9140     0.1792     2.1059 C.ar    
  19 C19           10.0162    -0.6520     2.3215 C.ar    
  20 C20           11.0928    -0.1447     3.0289 C.ar    
  21 C21           11.0434     1.1562     3.4950 C.ar    
  22 N22            9.9886     1.9174     3.2758 N.ar    
  23 C23           12.2125     1.7128     4.2659 C.3     
  24 H24            1.0039     1.9031     0.0027 H       
  25 H25           -0.5459     1.8868    -0.8726 H       
  26 H26           -0.5289     1.8773     0.9072 H       
  27 H27            0.5293    -0.3651     0.8851 H       
  28 H28           -1.9605    -0.1726    -0.8702 H       
  29 H29           -1.4185    -1.6235     0.0069 H       
  30 H30           -1.9435    -0.1821     0.9097 H       
  31 H31            2.6768     0.7033    -2.0256 H       
  32 H32            3.8247    -2.4674    -0.5023 H       
  33 H33            4.3663    -1.4239    -1.8514 H       
  34 H34            2.6958    -0.7000     0.5755 H       
  35 H35            4.3968     1.4265    -0.7620 H       
  36 H36            3.8652     1.3143     0.9430 H       
  37 H37            6.6492     1.5296     1.5299 H       
  38 H38            8.5597    -2.2680     1.0137 H       
  39 H39            6.5994    -3.0734    -0.2297 H       
  40 H40            8.0980     2.1333     2.4451 H       
  41 H41           10.0278    -1.6646     1.9462 H       
  42 H42           11.9618    -0.7585     3.2149 H       
  43 H43           12.9156     2.1773     3.5745 H       
  44 H44           11.8569     2.4578     4.9777 H       
  45 H45           12.7108     0.9058     4.8032 H       
@<TRIPOS>BOND
   1    1    2 1
   2    1   24 1
   3    1   25 1
   4    1   26 1
   5    2    3 1
   6    2    4 1
   7    2   27 1
   8    3   28 1
   9    3   29 1
  10    3   30 1
  11    4    5 2
  12    4    6 2
  13    4    7 am
  14    7    9 1
  15    7   31 1
  16    8    9 1
  17    8   16 1
  18    8   32 1
  19    8   33 1
  20    9   10 1
  21    9   34 1
  22   10   11 1
  23   10   35 1
  24   10   36 1
  25   11   12 ar
  26   11   16 ar
  27   12   13 ar
  28   12   37 1
  29   13   14 ar
  30   13   18 1
  31   14   15 ar
  32   14   38 1
  33   15   16 ar
  34   15   39 1
  35   17   18 ar
  36   17   22 ar
  37   17   40 1
  38   18   19 ar
  39   19   20 ar
  40   19   41 1
  41   20   21 ar
  42   20   42 1
  43   21   22 ar
  44   21   23 1
  45   23   43 1
  46   23   44 1
  47   23   45 1

#	End of record

