#	Name: ASD01913797
#	Creating user name:	WinNT
#	Creation time:	15. 06. 2019 20:02

#	Modifying user name:	WinNT
#	Modification time:	15. 06. 2019 20:02

#	Program:	/corina/corina34_cracker 3.40 0067  02.08.2006

@<TRIPOS>MOLECULE
ASD01913797
  38   41    0    0    0
SMALL
NO_CHARGES


@<TRIPOS>ATOM
   1 N1            -0.0036     1.2957     0.1966 N.ar    
   2 C2             0.0000    -0.0010    -0.0461 C.ar    
   3 C3             1.1791    -0.6762    -0.3079 C.ar    
   4 C4             2.3727     0.0225    -0.3150 C.ar    
   5 C5             2.3377     1.3993    -0.0542 C.ar    
   6 C6             1.1053     2.0058     0.2014 C.ar    
   7 C7             3.5442     2.1706    -0.0488 C.1     
   8 C8             4.5334     2.8029    -0.0444 C.1     
   9 C9             5.7399     3.5742    -0.0390 C.ar    
  10 C10            5.7031     4.9521     0.2223 C.ar    
  11 C11            8.0798     4.9752    -0.0453 C.ar    
  12 N12            8.0827     3.6722    -0.2832 N.ar    
  13 C13            6.9718     2.9651    -0.2880 C.ar    
  14 C14            6.8926     5.6524     0.2169 C.ar    
  15 N15            9.2831     5.6766    -0.0513 N.am    
  16 C16            9.4060     7.0105    -0.0448 C.2     
  17 O17           10.6733     7.4376    -0.0519 O.3     
  18 C18           11.5743     6.2934    -0.0644 C.3     
  19 C19           10.6235     5.0724    -0.0593 C.3     
  20 O20            8.4528     7.7639    -0.0335 O.2     
  21 C21           12.3493     6.2413     1.2674 C.3     
  22 C22           11.4360     5.4191     2.2096 C.3     
  23 C23           10.8661     4.3364     1.2735 C.3     
  24 H24           12.2317     6.3012    -0.9339 H       
  25 H25           10.7728     4.4320    -0.9286 H       
  26 H26           -0.9330    -0.5448    -0.0401 H       
  27 H27            1.1675    -1.7382    -0.5043 H       
  28 H28            3.3075    -0.4796    -0.5160 H       
  29 H29            1.0618     3.0657     0.4041 H       
  30 H30            4.7672     5.4526     0.4223 H       
  31 H31            7.0137     1.9043    -0.4861 H       
  32 H32            6.9019     6.7143     0.4136 H       
  33 H33           13.3072     5.7393     1.1315 H       
  34 H34           12.4974     7.2466     1.6618 H       
  35 H35           12.0173     4.9655     3.0123 H       
  36 H36           10.6374     6.0414     2.6135 H       
  37 H37            9.9271     3.9476     1.6676 H       
  38 H38           11.5873     3.5302     1.1398 H       
@<TRIPOS>BOND
   1    1    2 ar
   2    1    6 ar
   3    2    3 ar
   4    2   26 1
   5    3    4 ar
   6    3   27 1
   7    4    5 ar
   8    4   28 1
   9    5    6 ar
  10    5    7 1
  11    6   29 1
  12    7    8 3
  13    8    9 1
  14    9   10 ar
  15    9   13 ar
  16   10   14 ar
  17   10   30 1
  18   11   12 ar
  19   11   15 1
  20   11   14 ar
  21   12   13 ar
  22   13   31 1
  23   14   32 1
  24   15   16 am
  25   15   19 1
  26   16   17 1
  27   16   20 2
  28   17   18 1
  29   18   19 1
  30   18   21 1
  31   18   24 1
  32   19   25 1
  33   19   23 1
  34   21   22 1
  35   21   33 1
  36   21   34 1
  37   22   23 1
  38   22   35 1
  39   22   36 1
  40   23   37 1
  41   23   38 1

#	End of record

