#	Name: ASD01901559
#	Creating user name:	WinNT
#	Creation time:	15. 06. 2019 19:54

#	Modifying user name:	WinNT
#	Modification time:	15. 06. 2019 19:54

#	Program:	/corina/corina34_cracker 3.40 0067  02.08.2006

@<TRIPOS>MOLECULE
ASD01901559
  34   37    0    0    0
SMALL
NO_CHARGES


@<TRIPOS>ATOM
   1 F1             0.8270     2.0264     0.8474 F       
   2 C2            -0.5711     2.0735     0.8666 C.3     
   3 F3            -0.9913     3.1072     1.7105 F       
   4 C4            -1.0845     2.3235    -0.5281 C.ar    
   5 N5            -1.8698     1.4448    -1.1066 N.ar    
   6 C6            -2.3527     1.6090    -2.3310 C.ar    
   7 C7            -2.0627     2.7109    -3.0758 C.ar    
   8 C8            -1.2258     3.6989    -2.5227 C.ar    
   9 C9            -0.8817     4.8606    -3.2239 C.ar    
  10 C10           -0.0575     5.7921    -2.6257 C.ar    
  11 N11            0.2892     6.9519    -3.3178 N.pl3   
  12 C12            1.5278     7.5592    -3.0883 C.2     
  13 N13            2.4879     7.0907    -2.3360 N.2     
  14 N14            3.5760     7.9695    -2.3455 N.pl3   
  15 H15            4.4076     7.8401    -1.8632 H       
  16 C16            3.2799     9.0418    -3.1449 C.ar    
  17 C17            3.9728    10.1943    -3.5136 C.ar    
  18 C18            3.3497    11.0879    -4.3624 C.ar    
  19 C19            2.0666    10.8192    -4.8207 C.ar    
  20 N20            1.4274     9.7285    -4.4637 N.ar    
  21 C21            1.9838     8.8314    -3.6532 C.ar    
  22 C22            0.4339     5.5848    -1.3306 C.ar    
  23 C23            0.1129     4.4642    -0.6307 C.ar    
  24 C24           -0.7283     3.4987    -1.2076 C.ar    
  25 H25           -0.9617     1.1241     1.2327 H       
  26 H26           -2.9936     0.8468    -2.7490 H       
  27 H27           -2.4661     2.8248    -4.0711 H       
  28 H28           -1.2570     5.0261    -4.2230 H       
  29 H29           -0.3287     7.3375    -3.9584 H       
  30 H30            4.9702    10.3833    -3.1449 H       
  31 H31            3.8574    11.9908    -4.6679 H       
  32 H32            1.5840    11.5218    -5.4840 H       
  33 H33            1.0778     6.3263    -0.8812 H       
  34 H34            0.4999     4.3190     0.3670 H       
@<TRIPOS>BOND
   1    1    2 1
   2    2    3 1
   3    2    4 1
   4    2   25 1
   5    4   24 ar
   6    4    5 ar
   7    5    6 ar
   8    6    7 ar
   9    6   26 1
  10    7    8 ar
  11    7   27 1
  12    8   24 ar
  13    8    9 ar
  14    9   10 ar
  15    9   28 1
  16   10   11 1
  17   10   22 ar
  18   11   12 1
  19   11   29 1
  20   12   21 1
  21   12   13 2
  22   13   14 1
  23   14   15 1
  24   14   16 1
  25   16   21 ar
  26   16   17 ar
  27   17   18 ar
  28   17   30 1
  29   18   19 ar
  30   18   31 1
  31   19   20 ar
  32   19   32 1
  33   20   21 ar
  34   22   23 ar
  35   22   33 1
  36   23   24 ar
  37   23   34 1

#	End of record

