#	Name: ASD01840506
#	Creating user name:	WinNT
#	Creation time:	15. 06. 2019 19:37

#	Modifying user name:	WinNT
#	Modification time:	15. 06. 2019 19:37

#	Program:	/corina/corina34_cracker 3.40 0067  02.08.2006

@<TRIPOS>MOLECULE
ASD01840506
  35   37    0    0    0
SMALL
NO_CHARGES


@<TRIPOS>ATOM
   1 Cl1            0.0000     0.0000     0.0000 Cl      
   2 H2             0.0000     1.3700     0.0000 H       
   3 C3             6.8302    16.1574    10.6845 C.3     
   4 C4             6.8843    14.6514    10.6763 C.ar    
   5 N5             6.9174    14.0118     9.5303 N.ar    
   6 C6             6.9659    12.6773     9.4583 C.ar    
   7 S7             7.0157    11.6370     8.0419 S.3     
   8 C8             7.0598    10.1732     9.0045 C.ar    
   9 C9             7.1118     8.8171     8.6284 C.ar    
  10 N10            7.1371     7.8832     9.5621 N.ar    
  11 N11            7.1161     8.1620    10.8132 N.ar    
  12 C12            7.0679     9.3934    11.2665 C.ar    
  13 C13            7.0371    10.4734    10.3606 C.ar    
  14 C14            6.9830    11.9179    10.6230 C.ar    
  15 C15            6.9490    12.5833    11.8652 C.ar    
  16 C16            6.9662    11.8032    13.1544 C.3     
  17 C17            6.9043    13.9624    11.8788 C.ar    
  18 Cl18           6.8672    14.8245    13.3851 Cl      
  19 N19            7.1359     8.4634     7.2825 N.3     
  20 C20            5.7719     8.4183     6.7234 C.3     
  21 C21            6.1813     7.1428     5.9737 C.3     
  22 C22            7.1900     6.9984     7.1219 C.3     
  23 H23            7.8441    16.5574    10.6907 H       
  24 H24            6.3070    16.5070     9.7945 H       
  25 H25            6.3002    16.4970    11.5744 H       
  26 H26            7.0522     9.5785    12.3304 H       
  27 H27            7.9948    11.5522    13.4135 H       
  28 H28            6.5279    12.4060    13.9498 H       
  29 H29            6.3883    10.8870    13.0325 H       
  30 H30            5.0000     8.2515     7.4747 H       
  31 H31            5.5451     9.2558     6.0637 H       
  32 H32            5.4129     6.3700     5.9549 H       
  33 H33            6.6365     7.3240     5.0000 H       
  34 H34            8.1650     6.6326     6.8000 H       
  35 H35            6.7965     6.4527     7.9795 H       
@<TRIPOS>BOND
   1    1    2 1
   2    3    4 1
   3    3   23 1
   4    3   24 1
   5    3   25 1
   6    4   17 ar
   7    4    5 ar
   8    5    6 ar
   9    6   14 ar
  10    6    7 1
  11    7    8 1
  12    8   13 ar
  13    8    9 ar
  14    9   10 ar
  15    9   19 1
  16   10   11 ar
  17   11   12 ar
  18   12   13 ar
  19   12   26 1
  20   13   14 1
  21   14   15 ar
  22   15   16 1
  23   15   17 ar
  24   16   27 1
  25   16   28 1
  26   16   29 1
  27   17   18 1
  28   19   22 1
  29   19   20 1
  30   20   21 1
  31   20   30 1
  32   20   31 1
  33   21   22 1
  34   21   32 1
  35   21   33 1
  36   22   34 1
  37   22   35 1

#	End of record

