#	Name: ASD05842024
#	Creating user name:	WinNT
#	Creation time:	15. 06. 2019 21:03

#	Modifying user name:	WinNT
#	Modification time:	15. 06. 2019 21:03

#	Program:	/corina/corina34_cracker 3.40 0067  02.08.2006

@<TRIPOS>MOLECULE
ASD05842024
  58   59    0    0    0
SMALL
NO_CHARGES


@<TRIPOS>ATOM
   1 C1            -0.0167     1.3781     0.0096 C.ar    
   2 C2             0.0021    -0.0041     0.0020 C.ar    
   3 C3            -1.1855    -0.7115     0.0095 C.ar    
   4 C4            -2.3919    -0.0367     0.0251 C.ar    
   5 C5            -2.4106     1.3455     0.0336 C.ar    
   6 C6            -1.2230     2.0529     0.0305 C.ar    
   7 C7             1.2780     2.1493     0.0014 C.3     
   8 N8             1.6855     2.4073    -1.3862 N.3     
   9 C9             2.8813     3.2592    -1.4340 C.3     
  10 C10            2.5744     4.6064    -0.7769 C.3     
  11 C11            3.8012     5.4803    -0.8259 C.ar    
  12 C12            4.0112     6.3167    -1.9062 C.ar    
  13 C13            5.1365     7.1183    -1.9512 C.ar    
  14 C14            6.0515     7.0838    -0.9156 C.ar    
  15 C15            5.8410     6.2480     0.1651 C.ar    
  16 C16            4.7135     5.4496     0.2122 C.ar    
  17 C17           -0.4207    -2.2751    -6.7160 C.2     
  18 C18            0.6039    -1.9983    -5.6461 C.3     
  19 O19            1.9034    -1.9317    -6.2369 O.3     
  20 C20            0.2839    -0.6657    -4.9661 C.3     
  21 O21           -1.0156    -0.7323    -4.3753 O.3     
  22 C22            1.3241    -0.3847    -3.8798 C.3     
  23 O23            2.6236    -0.3181    -4.4706 O.3     
  24 C24            1.0041     0.9480    -3.1998 C.3     
  25 O25            1.9048     1.1548    -2.1097 O.3     
  26 O26           -0.0871    -2.3125    -7.8767 O.2     
  27 O27           -1.7039    -2.4800    -6.3795 O.3     
  28 C28           -2.6357    -2.7409    -7.4621 C.3     
  29 C29           -4.0389    -2.9476    -6.8885 C.3     
  30 H30            0.9446    -0.5313    -0.0101 H       
  31 H31           -1.1709    -1.7913     0.0029 H       
  32 H32           -3.3198    -0.5893     0.0302 H       
  33 H33           -3.3531     1.8728     0.0454 H       
  34 H34           -1.2376     3.1328     0.0372 H       
  35 H35            1.1397     3.0971     0.5217 H       
  36 H36            2.0505     1.5679     0.5048 H       
  37 H37            3.6964     2.7715    -0.8993 H       
  38 H38            3.1722     3.4192    -2.4722 H       
  39 H39            1.7593     5.0941    -1.3115 H       
  40 H40            2.2835     4.4464     0.2613 H       
  41 H41            3.2963     6.3437    -2.7153 H       
  42 H42            5.3010     7.7713    -2.7956 H       
  43 H43            6.9311     7.7095    -0.9511 H       
  44 H44            6.5561     6.2208     0.9741 H       
  45 H45            4.5490     4.7967     1.0565 H       
  46 H46            0.5817    -2.7984    -4.9062 H       
  47 H47            1.9960    -1.2402    -6.9064 H       
  48 H48            0.3060     0.1344    -5.7060 H       
  49 H49           -1.1083    -1.4238    -3.7058 H       
  50 H50            1.3020    -1.1848    -3.1399 H       
  51 H51            2.7163     0.3734    -5.1401 H       
  52 H52            1.1131     1.7588    -3.9200 H       
  53 H53           -0.0198     0.9287    -2.8264 H       
  54 H54           -2.6442    -1.8926    -8.1465 H       
  55 H55           -2.3269    -3.6379    -7.9990 H       
  56 H56           -4.0304    -3.7959    -6.2041 H       
  57 H57           -4.3477    -2.0507    -6.3516 H       
  58 H58           -4.7384    -3.1435    -7.7012 H       
@<TRIPOS>BOND
   1    1    2 ar
   2    1    7 1
   3    1    6 ar
   4    2    3 ar
   5    2   30 1
   6    3    4 ar
   7    3   31 1
   8    4    5 ar
   9    4   32 1
  10    5    6 ar
  11    5   33 1
  12    6   34 1
  13    7    8 1
  14    7   35 1
  15    7   36 1
  16    8    9 1
  17    8   25 1
  18    9   10 1
  19    9   37 1
  20    9   38 1
  21   10   11 1
  22   10   39 1
  23   10   40 1
  24   11   12 ar
  25   11   16 ar
  26   12   13 ar
  27   12   41 1
  28   13   14 ar
  29   13   42 1
  30   14   15 ar
  31   14   43 1
  32   15   16 ar
  33   15   44 1
  34   16   45 1
  35   17   18 1
  36   17   26 2
  37   17   27 1
  38   18   19 1
  39   18   20 1
  40   18   46 1
  41   19   47 1
  42   20   21 1
  43   20   22 1
  44   20   48 1
  45   21   49 1
  46   22   23 1
  47   22   24 1
  48   22   50 1
  49   23   51 1
  50   24   25 1
  51   24   52 1
  52   24   53 1
  53   27   28 1
  54   28   29 1
  55   28   54 1
  56   28   55 1
  57   29   56 1
  58   29   57 1
  59   29   58 1

#	End of record

