#	Name: ASD02039474
#	Creating user name:	WinNT
#	Creation time:	15. 06. 2019 20:18

#	Modifying user name:	WinNT
#	Modification time:	15. 06. 2019 20:18

#	Program:	/corina/corina34_cracker 3.40 0067  02.08.2006

@<TRIPOS>MOLECULE
ASD02039474
  49   51    0    0    0
SMALL
NO_CHARGES


@<TRIPOS>ATOM
   1 C1             0.2411     1.2700    -0.0118 C.2     
   2 C2             0.4464    -0.0508    -0.0122 C.2     
   3 C3             1.3779     2.2565    -0.0869 C.3     
   4 N4             1.5873     2.6551    -1.4810 N.am    
   5 C5             0.9261     3.7159    -1.9851 C.2     
   6 C6            -0.0973     4.3990    -1.1749 C.2     
   7 C7            -0.8972     5.4255    -1.5844 C.2     
   8 N8            -0.4202     4.1179     0.1134 N.2     
   9 C9            -1.3668     4.9254     0.4959 C.2     
  10 N10           -1.6869     5.7512    -0.5342 N.pl3   
  11 O11            1.1744     4.1092    -3.1089 O.2     
  12 C12           -2.7038     6.8056    -0.5123 C.3     
  13 S13           -1.1202    -0.8524     0.0864 S.3     
  14 C14           -1.9166     0.7187     0.1192 C.2     
  15 N15           -1.0133     1.6547     0.0525 N.2     
  16 C16           -3.3758     0.9392     0.2026 C.ar    
  17 C17           -4.2459    -0.1507     0.2635 C.ar    
  18 C18           -5.6060     0.0590     0.3417 C.ar    
  19 C19           -6.1111     1.3525     0.3594 C.ar    
  20 C20           -5.2488     2.4394     0.2990 C.ar    
  21 C21           -3.8871     2.2380     0.2264 C.ar    
  22 C22           -7.9038     2.9109     0.4497 C.3     
  23 F23           -7.4929     3.5514    -0.7243 F       
  24 F24           -7.3602     3.5720     1.5563 F       
  25 F25           -9.3002     2.9365     0.5307 F       
  26 C26            2.5153     1.9007    -2.3271 C.3     
  27 C27            1.7729     0.7367    -2.9864 C.3     
  28 O28            0.7798     1.2485    -3.8774 O.3     
  29 C29            0.0248     0.2379    -4.5487 C.3     
  30 O30           -7.4522     1.5552     0.4356 O.3     
  31 H31            1.4067    -0.5422    -0.0644 H       
  32 H32            1.1359     3.1358     0.5100 H       
  33 H33            2.2863     1.7941     0.2991 H       
  34 H34           -0.8996     5.8896    -2.5596 H       
  35 H35           -1.8257     4.9353     1.4735 H       
  36 H36           -2.2501     7.7412    -0.1853 H       
  37 H37           -3.1173     6.9324    -1.5128 H       
  38 H38           -3.5006     6.5276     0.1777 H       
  39 H39           -3.8539    -1.1570     0.2491 H       
  40 H40           -6.2798    -0.7837     0.3889 H       
  41 H41           -5.6453     3.4439     0.3130 H       
  42 H42           -3.2171     3.0838     0.1794 H       
  43 H43            2.9196     2.5570    -3.0978 H       
  44 H44            3.3302     1.5125    -1.7162 H       
  45 H45            2.4807     0.1239    -3.5446 H       
  46 H46            1.2937     0.1297    -2.2183 H       
  47 H47           -0.7071     0.7075    -5.2059 H       
  48 H48            0.6964    -0.3852    -5.1394 H       
  49 H49           -0.4906    -0.3794    -3.8130 H       
@<TRIPOS>BOND
   1    1    2 2
   2    1    3 1
   3    1   15 1
   4    2   13 1
   5    2   31 1
   6    3    4 1
   7    3   32 1
   8    3   33 1
   9    4    5 am
  10    4   26 1
  11    5    6 1
  12    5   11 2
  13    6    7 2
  14    6    8 1
  15    7   10 1
  16    7   34 1
  17    8    9 2
  18    9   10 1
  19    9   35 1
  20   10   12 1
  21   12   36 1
  22   12   37 1
  23   12   38 1
  24   13   14 1
  25   14   15 2
  26   14   16 1
  27   16   17 ar
  28   16   21 ar
  29   17   18 ar
  30   17   39 1
  31   18   19 ar
  32   18   40 1
  33   19   20 ar
  34   19   30 1
  35   20   21 ar
  36   20   41 1
  37   21   42 1
  38   22   23 1
  39   22   24 1
  40   22   25 1
  41   22   30 1
  42   26   27 1
  43   26   43 1
  44   26   44 1
  45   27   28 1
  46   27   45 1
  47   27   46 1
  48   28   29 1
  49   29   47 1
  50   29   48 1
  51   29   49 1

#	End of record

