#	Name: ASD02039133
#	Creating user name:	WinNT
#	Creation time:	15. 06. 2019 20:17

#	Modifying user name:	WinNT
#	Modification time:	15. 06. 2019 20:17

#	Program:	/corina/corina34_cracker 3.40 0067  02.08.2006

@<TRIPOS>MOLECULE
ASD02039133
  37   39    0    0    0
SMALL
NO_CHARGES


@<TRIPOS>ATOM
   1 N1             0.0236     1.2845    -0.3615 N.2     
   2 N2             0.0401    -0.0019    -0.3629 N.2     
   3 C3             1.2244     1.7332    -0.0879 C.2     
   4 O4             2.0204     0.6621     0.0880 O.3     
   5 C5             1.2412    -0.4221    -0.0927 C.2     
   6 N6             1.6033     3.0608     0.0025 N.pl3   
   7 C7             0.6407     4.0701    -0.0887 C.ar    
   8 C8             1.6813    -1.8603     0.0011 C.3     
   9 C9             2.1417    -2.3342    -1.3533 C.ar    
  10 C10           -0.6612     3.8288     0.3289 C.ar    
  11 C11            0.9868     5.3180    -0.5920 C.ar    
  12 C12            0.0352     6.3156    -0.6816 C.ar    
  13 C13           -1.2623     6.0753    -0.2718 C.ar    
  14 C14            3.4674    -2.1935    -1.7198 C.ar    
  15 C15            1.2388    -2.9141    -2.2252 C.ar    
  16 C16            1.6584    -3.3497    -3.4672 C.ar    
  17 C17            2.9870    -3.2049    -3.8394 C.ar    
  18 C18            3.8920    -2.6271    -2.9608 C.ar    
  19 C19           -1.6126     4.8321     0.2369 C.ar    
  20 O20            3.4023    -3.6330    -5.0605 O.3     
  21 O21           -2.8892     4.5974     0.6396 O.3     
  22 C22           -3.8185     5.6753     0.5110 C.3     
  23 F23           -3.9117     6.0530    -0.8328 F       
  24 F24           -5.0753     5.2645     0.9682 F       
  25 F25           -3.3784     6.7637     1.2718 F       
  26 H26            2.5370     3.2911     0.1291 H       
  27 H27            2.5021    -1.9434     0.7135 H       
  28 H28            0.8457    -2.4748     0.3364 H       
  29 H29           -0.9320     2.8610     0.7244 H       
  30 H30            2.0002     5.5084    -0.9130 H       
  31 H31            0.3061     7.2852    -1.0725 H       
  32 H32           -2.0038     6.8573    -0.3428 H       
  33 H33            4.1716    -1.7440    -1.0354 H       
  34 H34            0.2046    -3.0269    -1.9349 H       
  35 H35            0.9528    -3.8029    -4.1478 H       
  36 H36            4.9268    -2.5133    -3.2482 H       
  37 H37            3.3406    -2.9623    -5.7543 H       
@<TRIPOS>BOND
   1    1    2 1
   2    1    3 2
   3    2    5 2
   4    3    4 1
   5    3    6 1
   6    4    5 1
   7    5    8 1
   8    6    7 1
   9    6   26 1
  10    7   10 ar
  11    7   11 ar
  12    8    9 1
  13    8   27 1
  14    8   28 1
  15    9   14 ar
  16    9   15 ar
  17   10   19 ar
  18   10   29 1
  19   11   12 ar
  20   11   30 1
  21   12   13 ar
  22   12   31 1
  23   13   19 ar
  24   13   32 1
  25   14   18 ar
  26   14   33 1
  27   15   16 ar
  28   15   34 1
  29   16   17 ar
  30   16   35 1
  31   17   18 ar
  32   17   20 1
  33   18   36 1
  34   19   21 1
  35   20   37 1
  36   21   22 1
  37   22   23 1
  38   22   24 1
  39   22   25 1

#	End of record

