#	Name: ASD09740185
#	Creating user name:	WinNT
#	Creation time:	15. 06. 2019 21:22

#	Modifying user name:	WinNT
#	Modification time:	15. 06. 2019 21:22

#	Program:	/corina/corina34_cracker 3.40 0067  02.08.2006

@<TRIPOS>MOLECULE
ASD09740185
  38   40    0    0    0
SMALL
NO_CHARGES


@<TRIPOS>ATOM
   1 O1            -0.0144     1.2085     0.0087 O.3     
   2 N2             0.0021    -0.0041     0.0020 N.2     
   3 C3             1.2411     1.6827    -0.0008 C.2     
   4 N4             2.0455     0.6366    -0.0141 N.2     
   5 C5             1.2350    -0.4419    -0.0121 C.2     
   6 C6             1.6631    -1.8634    -0.0238 C.ar    
   7 C7             1.6455     3.1045     0.0023 C.ar    
   8 C8             3.0186    -2.1845    -0.0385 C.ar    
   9 C9             0.7109    -2.8794    -0.0144 C.ar    
  10 C10            1.1165    -4.2037    -0.0249 C.ar    
  11 C11            2.4692    -4.5154    -0.0444 C.ar    
  12 C12            3.4145    -3.5073    -0.0489 C.ar    
  13 C13            2.9998     3.4451    -0.0092 C.ar    
  14 C14            3.3767     4.7693    -0.0064 C.ar    
  15 C15            2.4042     5.7723     0.0075 C.ar    
  16 C16            1.0490     5.4310     0.0186 C.ar    
  17 C17            0.6728     4.1071     0.0108 C.ar    
  18 C18            2.9080    -5.9571    -0.0548 C.3     
  19 O19            0.1902    -5.1982    -0.0157 O.3     
  20 C20           -1.1835    -4.8050     0.0048 C.3     
  21 C21           -0.0003     6.5126     0.0342 C.3     
  22 C22            2.7959     7.1497     0.0109 C.1     
  23 N23            3.1066     8.2423     0.0137 N.1     
  24 H24            3.7598    -1.3989    -0.0421 H       
  25 H25           -0.3411    -2.6354     0.0015 H       
  26 H26            4.4657    -3.7547    -0.0640 H       
  27 H27            3.7515     2.6698    -0.0200 H       
  28 H28            4.4241     5.0327    -0.0146 H       
  29 H29           -0.3745     3.8433     0.0194 H       
  30 H30            2.9998    -6.3015    -1.0849 H       
  31 H31            3.8722    -6.0470     0.4456 H       
  32 H32            2.1695    -6.5654     0.4673 H       
  33 H33           -1.8156    -5.6930     0.0103 H       
  34 H34           -1.3791    -4.2143     0.8998 H       
  35 H35           -1.4038    -4.2078    -0.8800 H       
  36 H36           -0.2631     6.7787    -0.9897 H       
  37 H37           -0.8872     6.1509     0.5545 H       
  38 H38            0.3903     7.3904     0.5489 H       
@<TRIPOS>BOND
   1    1    2 1
   2    1    3 1
   3    2    5 2
   4    3    4 2
   5    3    7 1
   6    4    5 1
   7    5    6 1
   8    6    8 ar
   9    6    9 ar
  10    7   13 ar
  11    7   17 ar
  12    8   12 ar
  13    8   24 1
  14    9   10 ar
  15    9   25 1
  16   10   11 ar
  17   10   19 1
  18   11   12 ar
  19   11   18 1
  20   12   26 1
  21   13   14 ar
  22   13   27 1
  23   14   15 ar
  24   14   28 1
  25   15   16 ar
  26   15   22 1
  27   16   17 ar
  28   16   21 1
  29   17   29 1
  30   18   30 1
  31   18   31 1
  32   18   32 1
  33   19   20 1
  34   20   33 1
  35   20   34 1
  36   20   35 1
  37   21   36 1
  38   21   37 1
  39   21   38 1
  40   22   23 3

#	End of record

