#	Name: ASD06170032
#	Creating user name:	WinNT
#	Creation time:	15. 06. 2019 21:05

#	Modifying user name:	WinNT
#	Modification time:	15. 06. 2019 21:05

#	Program:	/corina/corina34_cracker 3.40 0067  02.08.2006

@<TRIPOS>MOLECULE
ASD06170032
  64   68    0    0    0
SMALL
NO_CHARGES


@<TRIPOS>ATOM
   1 N1             0.0283    -1.9559     0.7889 N.pl3   
   2 N2             0.1830    -0.7222     0.1497 N.am    
   3 C3             1.4998    -0.5013    -0.0448 C.2     
   4 C4             2.2055    -1.6686     0.5070 C.2     
   5 C5             1.2340    -2.5173     1.0005 C.2     
   6 C6             3.6568    -1.8880     0.5289 C.2     
   7 O7             4.1111    -2.9049     1.0191 O.2     
   8 N8             4.4860    -0.9631     0.0060 N.am    
   9 O9             2.0044     0.4717    -0.5734 O.2     
  10 C10            1.4815    -3.8474     1.6644 C.3     
  11 C11           -1.2547    -2.5474     1.1766 C.3     
  12 C12            5.8726    -1.1184     0.1256 C.ar    
  13 C13            6.4371    -2.3860     0.0670 C.ar    
  14 C14            7.8059    -2.5382     0.1847 C.ar    
  15 C15            8.6159    -1.4228     0.3615 C.ar    
  16 C16            8.0511    -0.1579     0.4198 C.ar    
  17 C17            6.6837    -0.0048     0.2969 C.ar    
  18 F18            8.3561    -3.7708     0.1283 F       
  19 O19            9.9626    -1.5721     0.4778 O.3     
  20 N20           12.1638    -1.8684    -2.9976 N.ar    
  21 C21           10.8531    -1.8252    -3.0481 C.ar    
  22 C22           10.0786    -1.7249    -1.8993 C.ar    
  23 C23           10.6928    -1.6696    -0.6604 C.ar    
  24 C24           12.1045    -1.7174    -0.6181 C.ar    
  25 C25           12.7981    -1.6666     0.6002 C.ar    
  26 C26           14.1622    -1.7156     0.6035 C.ar    
  27 C27           14.8769    -1.8158    -0.5987 C.ar    
  28 C28           14.2268    -1.8669    -1.7980 C.ar    
  29 C29           12.8234    -1.8189    -1.8340 C.ar    
  30 O30           16.2347    -1.8621    -0.5696 O.3     
  31 C31           16.9074    -1.9641    -1.8262 C.3     
  32 O32           14.8348    -1.6664     1.7843 O.3     
  33 C33           14.0499    -1.5641     2.9741 C.3     
  34 C34           -0.8535     0.1385    -0.2257 C.ar    
  35 C35           -2.0231    -0.3765    -0.7694 C.ar    
  36 C36           -3.0456     0.4769    -1.1388 C.ar    
  37 C37           -2.9040     1.8432    -0.9676 C.ar    
  38 C38           -1.7406     2.3578    -0.4266 C.ar    
  39 C39           -0.7175     1.5094    -0.0502 C.ar    
  40 Cl40          -4.5083    -0.1651    -1.8186 Cl      
  41 H41            4.1224    -0.1899    -0.4532 H       
  42 H42            1.4842    -4.6348     0.9106 H       
  43 H43            2.4461    -3.8265     2.1714 H       
  44 H44            0.6931    -4.0430     2.3912 H       
  45 H45           -1.6764    -3.0879     0.3292 H       
  46 H46           -1.1009    -3.2365     2.0070 H       
  47 H47           -1.9412    -1.7578     1.4820 H       
  48 H48            5.8069    -3.2523    -0.0700 H       
  49 H49            8.6810     0.7086     0.5571 H       
  50 H50            6.2451     0.9813     0.3380 H       
  51 H51           10.3630    -1.8681    -4.0095 H       
  52 H52            9.0017    -1.6908    -1.9726 H       
  53 H53           12.2556    -1.5888     1.5308 H       
  54 H54           14.7898    -1.9436    -2.7164 H       
  55 H55           16.5940    -2.8768    -2.3331 H       
  56 H56           16.6569    -1.1014    -2.4435 H       
  57 H57           17.9844    -1.9920    -1.6606 H       
  58 H58           13.4534    -0.6525     2.9386 H       
  59 H59           13.3894    -2.4278     3.0490 H       
  60 H60           14.7084    -1.5338     3.8422 H       
  61 H61           -2.1334    -1.4424    -0.9037 H       
  62 H62           -3.7038     2.5084    -1.2575 H       
  63 H63           -1.6331     3.4243    -0.2942 H       
  64 H64            0.1892     1.9122     0.3765 H       
@<TRIPOS>BOND
   1    1    2 1
   2    1    5 1
   3    1   11 1
   4    2    3 am
   5    2   34 1
   6    3    4 1
   7    3    9 2
   8    4    5 2
   9    4    6 1
  10    5   10 1
  11    6    7 2
  12    6    8 am
  13    8   12 1
  14    8   41 1
  15   10   42 1
  16   10   43 1
  17   10   44 1
  18   11   45 1
  19   11   46 1
  20   11   47 1
  21   12   13 ar
  22   12   17 ar
  23   13   14 ar
  24   13   48 1
  25   14   15 ar
  26   14   18 1
  27   15   16 ar
  28   15   19 1
  29   16   17 ar
  30   16   49 1
  31   17   50 1
  32   19   23 1
  33   20   21 ar
  34   20   29 ar
  35   21   22 ar
  36   21   51 1
  37   22   23 ar
  38   22   52 1
  39   23   24 ar
  40   24   25 ar
  41   24   29 ar
  42   25   26 ar
  43   25   53 1
  44   26   27 ar
  45   26   32 1
  46   27   28 ar
  47   27   30 1
  48   28   29 ar
  49   28   54 1
  50   30   31 1
  51   31   55 1
  52   31   56 1
  53   31   57 1
  54   32   33 1
  55   33   58 1
  56   33   59 1
  57   33   60 1
  58   34   35 ar
  59   34   39 ar
  60   35   36 ar
  61   35   61 1
  62   36   37 ar
  63   36   40 1
  64   37   38 ar
  65   37   62 1
  66   38   39 ar
  67   38   63 1
  68   39   64 1

#	End of record

