#	Name: ASD01208941
#	Creating user name:	WinNT
#	Creation time:	15. 06. 2019 19:10

#	Modifying user name:	WinNT
#	Modification time:	15. 06. 2019 19:10

#	Program:	/corina/corina34_cracker 3.40 0067  02.08.2006

@<TRIPOS>MOLECULE
ASD01208941
  51   54    0    0    0
SMALL
NO_CHARGES


@<TRIPOS>ATOM
   1 C1            -2.3645     1.5965    -0.2050 C.3     
   2 C2            -2.3779     0.0513    -0.3118 C.3     
   3 C3            -2.1027    -0.2272    -1.8039 C.3     
   4 C4            -2.5315     1.0347    -2.5730 C.3     
   5 C5            -3.0523     2.0360    -1.5213 C.3     
   6 C6            -1.2752    -0.5552     0.5584 C.3     
   7 C7            -1.3938    -2.0805     0.5423 C.3     
   8 C8            -0.2300    -2.6827     1.2866 C.2     
   9 N9             1.0258    -2.5063     0.8302 N.am    
  10 C10            2.0850    -3.1383     1.4574 C.2     
  11 N11           -2.6463    -2.4797     1.1889 N.pl3   
  12 S12            3.7210    -3.0004     0.9820 S.3     
  13 C13            4.2050    -4.0771     2.2900 C.2     
  14 C14            3.0748    -4.4428     2.9691 C.2     
  15 N15            1.9753    -3.9162     2.4950 N.2     
  16 C16           -2.8353    -2.6545     2.5136 C.2     
  17 C17           -4.1245    -3.0204     2.7015 C.2     
  18 C18           -4.7445    -3.0709     1.4487 C.2     
  19 N19           -3.8608    -2.7416     0.5418 N.2     
  20 C20           -5.5396    -1.7723     4.8063 C.3     
  21 O21           -0.4235    -3.3260     2.2962 O.2     
  22 C22           -6.1706    -1.7122     6.1988 C.3     
  23 C23           -4.8053    -1.0684     5.9492 C.3     
  24 C24            5.5691    -4.5037     2.5946 C.2     
  25 O25            5.7774    -5.2543     3.5292 O.2     
  26 O26            6.5977    -4.0653     1.8392 O.3     
  27 S27           -4.8873    -3.3711     4.2506 S.o2    
  28 O28           -5.9495    -4.2572     3.9255 O.2     
  29 O29           -3.8140    -3.7884     5.0832 O.2     
  30 H30           -2.9380     1.9289     0.6602 H       
  31 H31           -1.3421     1.9716    -0.1594 H       
  32 H32           -3.3525    -0.3425    -0.0236 H       
  33 H33           -1.0404    -0.4159    -1.9588 H       
  34 H34           -2.6873    -1.0845    -2.1377 H       
  35 H35           -1.6773     1.4584    -3.1011 H       
  36 H36           -3.3242     0.7898    -3.2800 H       
  37 H37           -4.1359     1.9627    -1.4285 H       
  38 H38           -2.7589     3.0524    -1.7842 H       
  39 H39           -0.3010    -0.2624     0.1668 H       
  40 H40           -1.3793    -0.1934     1.5813 H       
  41 H41           -1.3882    -2.4345    -0.4886 H       
  42 H42            1.1870    -1.9363     0.0621 H       
  43 H43            3.0897    -5.1040     3.8230 H       
  44 H44           -2.0910    -2.5258     3.2854 H       
  45 H45           -5.7758    -3.3322     1.2626 H       
  46 H46           -5.9770    -1.1469     4.0281 H       
  47 H47           -7.0230    -1.0470     6.3368 H       
  48 H48           -6.1938    -2.6334     6.7810 H       
  49 H49           -3.9302    -1.5661     6.3672 H       
  50 H50           -4.7594     0.0203     5.9230 H       
  51 H51            7.4609    -4.4010     2.1171 H       
@<TRIPOS>BOND
   1    1    2 1
   2    1    5 1
   3    1   30 1
   4    1   31 1
   5    2    3 1
   6    2    6 1
   7    2   32 1
   8    3    4 1
   9    3   33 1
  10    3   34 1
  11    4    5 1
  12    4   35 1
  13    4   36 1
  14    5   37 1
  15    5   38 1
  16    6    7 1
  17    6   39 1
  18    6   40 1
  19    7    8 1
  20    7   11 1
  21    7   41 1
  22    8    9 am
  23    8   21 2
  24    9   10 1
  25    9   42 1
  26   10   12 1
  27   10   15 2
  28   11   16 1
  29   11   19 1
  30   12   13 1
  31   13   14 2
  32   13   24 1
  33   14   15 1
  34   14   43 1
  35   16   17 2
  36   16   44 1
  37   17   18 1
  38   17   27 1
  39   18   19 2
  40   18   45 1
  41   20   22 1
  42   20   27 1
  43   20   23 1
  44   20   46 1
  45   22   23 1
  46   22   47 1
  47   22   48 1
  48   23   49 1
  49   23   50 1
  50   24   25 2
  51   24   26 1
  52   26   51 1
  53   27   28 2
  54   27   29 2

#	End of record

