#	Name: ASD01812948
#	Creating user name:	WinNT
#	Creation time:	15. 06. 2019 19:29

#	Modifying user name:	WinNT
#	Modification time:	15. 06. 2019 19:29

#	Program:	/corina/corina34_cracker 3.40 0067  02.08.2006

@<TRIPOS>MOLECULE
ASD01812948
  54   58    0    0    0
SMALL
NO_CHARGES


@<TRIPOS>ATOM
   1 C1             0.0539     1.4262    -0.5939 C.ar    
   2 C2             0.0960     0.0623    -0.8038 C.ar    
   3 C3             1.2787    -0.6378    -0.6183 C.ar    
   4 C4             2.4167     0.0235    -0.2244 C.ar    
   5 C5             2.3925     1.4046    -0.0078 C.ar    
   6 C6             1.1948     2.1077    -0.1961 C.ar    
   7 C7             3.8282    -0.4267     0.0586 C.3     
   8 N8             4.5735     0.7783     0.4408 N.am    
   9 C9             3.7405     1.8324     0.4009 C.2     
  10 C10            5.9914     0.8246     0.8060 C.3     
  11 C11            6.8211     1.0597    -0.4299 C.ar    
  12 O12            1.1515     3.4479     0.0091 O.3     
  13 O13            4.0555     2.9767     0.6652 O.2     
  14 C14            7.1185     2.3508    -0.8259 C.ar    
  15 C15            7.8787     2.5695    -1.9582 C.ar    
  16 C16            8.3442     1.4915    -2.6989 C.ar    
  17 C17            8.0439     0.1964    -2.2988 C.ar    
  18 C18            7.2881    -0.0161    -1.1625 C.ar    
  19 C19           -0.1276     4.0779    -0.0868 C.3     
  20 N20            9.1156     1.7102    -3.8489 N.pl3   
  21 N21            9.4963     2.9571    -4.3614 N.2     
  22 C22            9.6289     0.7548    -4.6565 C.2     
  23 C23           10.3063     1.3757    -5.6499 C.2     
  24 C24           10.2124     2.7556    -5.4381 C.2     
  25 C25           -0.1238     5.3536     0.7505 C.3     
  26 C26           -1.5463     5.9051     0.8697 C.3     
  27 S27           -2.1386     6.3756    -0.7820 S.o2    
  28 C28           -1.8817     4.8324    -1.7055 C.3     
  29 C29           -0.4234     4.3954    -1.5496 C.3     
  30 O30           -3.5339     6.6344    -0.7081 O.2     
  31 O31           -1.2722     7.3708    -1.3094 O.2     
  32 H32           -0.8698     1.9653    -0.7444 H       
  33 H33           -0.7961    -0.4618    -1.1134 H       
  34 H34            1.3051    -1.7048    -0.7834 H       
  35 H35            3.8349    -1.1467     0.8769 H       
  36 H36            4.2664    -0.8705    -0.8353 H       
  37 H37            6.1577     1.6356     1.5150 H       
  38 H38            6.2801    -0.1221     1.2627 H       
  39 H39            6.7558     3.1889    -0.2495 H       
  40 H40            8.1104     3.5780    -2.2672 H       
  41 H41            8.4044    -0.6442    -2.8732 H       
  42 H42            7.0581    -1.0234    -0.8480 H       
  43 H43           -0.8913     3.4001     0.2947 H       
  44 H44            9.5183    -0.3122    -4.5311 H       
  45 H45           10.8327     0.8915    -6.4591 H       
  46 H46           10.6515     3.5226    -6.0590 H       
  47 H47            0.2630     5.1323     1.7452 H       
  48 H48            0.5139     6.0976     0.2733 H       
  49 H49           -2.2005     5.1398     1.2875 H       
  50 H50           -1.5449     6.7802     1.5197 H       
  51 H51           -2.5389     4.0575    -1.3108 H       
  52 H52           -2.1023     4.9974    -2.7601 H       
  53 H53            0.2328     5.1984    -1.8854 H       
  54 H54           -0.2451     3.5072    -2.1558 H       
@<TRIPOS>BOND
   1    1    2 ar
   2    1    6 ar
   3    1   32 1
   4    2    3 ar
   5    2   33 1
   6    3    4 ar
   7    3   34 1
   8    4    7 1
   9    4    5 ar
  10    5    6 ar
  11    5    9 1
  12    6   12 1
  13    7    8 1
  14    7   35 1
  15    7   36 1
  16    8    9 am
  17    8   10 1
  18    9   13 2
  19   10   11 1
  20   10   37 1
  21   10   38 1
  22   11   14 ar
  23   11   18 ar
  24   12   19 1
  25   14   15 ar
  26   14   39 1
  27   15   16 ar
  28   15   40 1
  29   16   17 ar
  30   16   20 1
  31   17   18 ar
  32   17   41 1
  33   18   42 1
  34   19   25 1
  35   19   29 1
  36   19   43 1
  37   20   22 1
  38   20   21 1
  39   21   24 2
  40   22   23 2
  41   22   44 1
  42   23   24 1
  43   23   45 1
  44   24   46 1
  45   25   26 1
  46   25   47 1
  47   25   48 1
  48   26   27 1
  49   26   49 1
  50   26   50 1
  51   27   28 1
  52   27   30 2
  53   27   31 2
  54   28   29 1
  55   28   51 1
  56   28   52 1
  57   29   53 1
  58   29   54 1

#	End of record

