#	Name: ASD04880392
#	Creating user name:	WinNT
#	Creation time:	15. 06. 2019 20:53

#	Modifying user name:	WinNT
#	Modification time:	15. 06. 2019 20:53

#	Program:	/corina/corina34_cracker 3.40 0067  02.08.2006

@<TRIPOS>MOLECULE
ASD04880392
  43   45    0    0    0
SMALL
NO_CHARGES


@<TRIPOS>ATOM
   1 C1            -0.3839     2.6672    -2.1190 C.ar    
   2 C2            -0.5819     1.3025    -2.2255 C.ar    
   3 C3             0.4474     0.4282    -1.9428 C.ar    
   4 C4             1.6919     0.9226    -1.5488 C.ar    
   5 C5             1.8875     2.3008    -1.4431 C.ar    
   6 C6             0.8488     3.1660    -1.7284 C.ar    
   7 C7             2.7978    -0.0092    -1.2443 C.2     
   8 O8             2.5933    -1.2074    -1.2176 O.2     
   9 N9             4.0332     0.4692    -0.9963 N.am    
  10 C10            5.1928    -0.3327    -0.5750 C.3     
  11 N11            4.4221     1.8030    -1.1028 N.2     
  12 C12            5.6605     2.0149    -0.8123 C.2     
  13 C13            6.3223     0.7076    -0.4390 C.3     
  14 F14            1.0353     4.5003    -1.6274 F       
  15 C15            6.3277     3.3265    -0.8427 C.ar    
  16 C16            7.3472     3.5830    -1.7825 C.ar    
  17 C17            7.9695     4.8309    -1.7981 C.ar    
  18 C18            7.5865     5.8042    -0.8982 C.ar    
  19 C19            6.5852     5.5524     0.0257 C.ar    
  20 C20            5.9520     4.3272     0.0547 C.ar    
  21 C21            7.7530     2.5384    -2.7421 C.2     
  22 O22            6.9110     1.9518    -3.3943 O.2     
  23 N23            9.0570     2.2345    -2.8959 N.am    
  24 C24            9.4706     1.2849    -3.9320 C.3     
  25 C25           10.0609     2.8537    -2.0270 C.3     
  26 H26           -1.1919     3.3471    -2.3454 H       
  27 H27           -1.5449     0.9202    -2.5303 H       
  28 H28            0.2903    -0.6371    -2.0260 H       
  29 H29            2.8479     2.6896    -1.1384 H       
  30 H30            4.9981    -0.8147     0.3831 H       
  31 H31            5.4431    -1.0735    -1.3343 H       
  32 H32            6.6882     0.7437     0.5871 H       
  33 H33            7.1355     0.4803    -1.1282 H       
  34 H34            8.7514     5.0354    -2.5145 H       
  35 H35            8.0711     6.7692    -0.9138 H       
  36 H36            6.2950     6.3226     0.7250 H       
  37 H37            5.1724     4.1390     0.7781 H       
  38 H38            9.5859     1.8095    -4.8805 H       
  39 H39           10.4205     0.8306    -3.6502 H       
  40 H40            8.7130     0.5081    -4.0362 H       
  41 H41            9.5621     3.4501    -1.2631 H       
  42 H42           10.6571     2.0763    -1.5492 H       
  43 H43           10.7105     3.4954    -2.6222 H       
@<TRIPOS>BOND
   1    1    2 ar
   2    1    6 ar
   3    1   26 1
   4    2    3 ar
   5    2   27 1
   6    3    4 ar
   7    3   28 1
   8    4    5 ar
   9    4    7 1
  10    5    6 ar
  11    5   29 1
  12    6   14 1
  13    7    8 2
  14    7    9 am
  15    9   10 1
  16    9   11 1
  17   10   13 1
  18   10   30 1
  19   10   31 1
  20   11   12 2
  21   12   13 1
  22   12   15 1
  23   13   32 1
  24   13   33 1
  25   15   16 ar
  26   15   20 ar
  27   16   17 ar
  28   16   21 1
  29   17   18 ar
  30   17   34 1
  31   18   19 ar
  32   18   35 1
  33   19   20 ar
  34   19   36 1
  35   20   37 1
  36   21   22 2
  37   21   23 am
  38   23   24 1
  39   23   25 1
  40   24   38 1
  41   24   39 1
  42   24   40 1
  43   25   41 1
  44   25   42 1
  45   25   43 1

#	End of record

