#	Name: ASD02039227
#	Creating user name:	WinNT
#	Creation time:	15. 06. 2019 20:17

#	Modifying user name:	WinNT
#	Modification time:	15. 06. 2019 20:17

#	Program:	/corina/corina34_cracker 3.40 0067  02.08.2006

@<TRIPOS>MOLECULE
ASD02039227
  41   44    0    0    0
SMALL
NO_CHARGES


@<TRIPOS>ATOM
   1 N1             0.3656     0.7657     0.0408 N.am    
   2 C2             0.4558    -0.5748     0.1162 C.2     
   3 C3             1.7966    -1.2519     0.2102 C.3     
   4 C4             2.8272    -0.4834    -0.6176 C.3     
   5 C5             2.7474     0.9840    -0.2856 C.ar    
   6 C6             3.8892     1.7603    -0.2964 C.ar    
   7 C7             3.8121     3.1111     0.0094 C.ar    
   8 C8             2.5882     3.6826     0.3261 C.ar    
   9 C9             1.4458     2.9072     0.3377 C.ar    
  10 C10            1.5222     1.5551     0.0312 C.ar    
  11 O11           -0.5551    -1.2450     0.1087 O.2     
  12 O12            4.9366     3.8754    -0.0009 O.3     
  13 C13            4.7839     5.2587     0.3238 C.3     
  14 O14            7.7411     6.9678    -0.5146 O.3     
  15 N15            6.6513     6.5086    -0.7835 N.2     
  16 C16            6.1264     5.9405     0.2614 C.2     
  17 N17            6.9975     6.0715     1.2752 N.2     
  18 C18            8.0280     6.7291     0.7731 C.2     
  19 N19            9.1718     7.0973     1.4415 N.pl3   
  20 C20           10.2311     7.6865     0.7432 C.ar    
  21 C21           11.0736     8.5846     1.3855 C.ar    
  22 C22           12.1193     9.1651     0.6931 C.ar    
  23 C23           12.3268     8.8516    -0.6401 C.ar    
  24 C24           11.4882     7.9576    -1.2815 C.ar    
  25 C25           10.4454     7.3700    -0.5919 C.ar    
  26 Cl26          13.6410     9.5822    -1.5077 Cl      
  27 Cl27          13.1729    10.2882     1.4944 Cl      
  28 H28           -0.5062     1.1877    -0.0112 H       
  29 H29            2.1163    -1.2788     1.2519 H       
  30 H30            1.7150    -2.2707    -0.1685 H       
  31 H31            3.8263    -0.8538    -0.3882 H       
  32 H32            2.6213    -0.6275    -1.6782 H       
  33 H33            4.8422     1.3157    -0.5425 H       
  34 H34            2.5290     4.7344     0.5641 H       
  35 H35            0.4933     3.3521     0.5850 H       
  36 H36            4.1053     5.7265    -0.3894 H       
  37 H37            4.3750     5.3527     1.3298 H       
  38 H38            9.2442     6.9485     2.3973 H       
  39 H39           10.9116     8.8292     2.4249 H       
  40 H40           11.6520     7.7151    -2.3211 H       
  41 H41            9.7942     6.6685    -1.0921 H       
@<TRIPOS>BOND
   1    1    2 am
   2    1   10 1
   3    1   28 1
   4    2    3 1
   5    2   11 2
   6    3    4 1
   7    3   29 1
   8    3   30 1
   9    4    5 1
  10    4   31 1
  11    4   32 1
  12    5    6 ar
  13    5   10 ar
  14    6    7 ar
  15    6   33 1
  16    7    8 ar
  17    7   12 1
  18    8    9 ar
  19    8   34 1
  20    9   10 ar
  21    9   35 1
  22   12   13 1
  23   13   16 1
  24   13   36 1
  25   13   37 1
  26   14   15 1
  27   14   18 1
  28   15   16 2
  29   16   17 1
  30   17   18 2
  31   18   19 1
  32   19   20 1
  33   19   38 1
  34   20   21 ar
  35   20   25 ar
  36   21   22 ar
  37   21   39 1
  38   22   23 ar
  39   22   27 1
  40   23   24 ar
  41   23   26 1
  42   24   25 ar
  43   24   40 1
  44   25   41 1

#	End of record

