#	Name: ASD01908268
#	Creating user name:	WinNT
#	Creation time:	15. 06. 2019 19:54

#	Modifying user name:	WinNT
#	Modification time:	15. 06. 2019 19:54

#	Program:	/corina/corina34_cracker 3.40 0067  02.08.2006

@<TRIPOS>MOLECULE
ASD01908268
  43   44    0    0    0
SMALL
NO_CHARGES


@<TRIPOS>ATOM
   1 N1            -0.0007     1.4954     0.0105 N.am    
   2 C2            -0.0147     0.0252    -0.0309 C.3     
   3 C3             0.8960    -0.4382    -1.1729 C.3     
   4 N4             2.2251     0.1660    -1.0110 N.3     
   5 C5             2.1604     1.6303    -1.1096 C.3     
   6 C6             1.3016     2.1785     0.0350 C.3     
   7 C7            -1.1508     2.1981     0.0202 C.2     
   8 O8            -2.2178     1.6173    -0.0055 O.2     
   9 O9            -1.1173     3.5435     0.0583 O.3     
  10 C10            3.1322    -0.3600    -1.9398 C.ar    
  11 C11            3.5137    -1.6940    -1.8598 C.ar    
  12 C12            4.4084    -2.2123    -2.7761 C.ar    
  13 C13            4.9262    -1.4001    -3.7766 C.ar    
  14 C14            4.5451    -0.0675    -3.8558 C.ar    
  15 C15            3.6457     0.4495    -2.9435 C.ar    
  16 Cl16           2.8667    -2.7086    -0.6086 Cl      
  17 N17            5.8328    -1.9252    -4.7052 N.pl3   
  18 C18           -2.3942     4.2347     0.0666 C.3     
  19 C19           -3.1970     3.8084     1.2973 C.3     
  20 C20           -2.1561     5.7454     0.1111 C.3     
  21 C21           -3.1750     3.8786    -1.2001 C.3     
  22 H22            0.3538    -0.3713     0.9152 H       
  23 H23           -1.0312    -0.3265    -0.2075 H       
  24 H24            0.9849    -1.5243    -1.1494 H       
  25 H25            0.4693    -0.1284    -2.1269 H       
  26 H26            3.1663     2.0443    -1.0401 H       
  27 H27            1.7162     1.9113    -2.0644 H       
  28 H28            1.1553     3.2504    -0.0979 H       
  29 H29            1.7966     1.9890     0.9875 H       
  30 H30            4.7054    -3.2488    -2.7141 H       
  31 H31            4.9481     0.5639    -4.6338 H       
  32 H32            3.3455     1.4849    -3.0086 H       
  33 H33            6.0993    -2.8562    -4.6497 H       
  34 H34            6.1944    -1.3580    -5.4041 H       
  35 H35           -2.6407     4.0620     2.1997 H       
  36 H36           -4.1555     4.3272     1.3035 H       
  37 H37           -3.3666     2.7321     1.2655 H       
  38 H38           -1.5842     6.0491    -0.7657 H       
  39 H39           -3.1147     6.2642     0.1173 H       
  40 H40           -1.5998     5.9990     1.0135 H       
  41 H41           -3.3447     2.8023    -1.2319 H       
  42 H42           -4.1336     4.3975    -1.1939 H       
  43 H43           -2.6031     4.1823    -2.0769 H       
@<TRIPOS>BOND
   1    1    2 1
   2    1    6 1
   3    1    7 am
   4    2    3 1
   5    2   22 1
   6    2   23 1
   7    3    4 1
   8    3   24 1
   9    3   25 1
  10    4    5 1
  11    4   10 1
  12    5    6 1
  13    5   26 1
  14    5   27 1
  15    6   28 1
  16    6   29 1
  17    7    8 2
  18    7    9 1
  19    9   18 1
  20   10   11 ar
  21   10   15 ar
  22   11   12 ar
  23   11   16 1
  24   12   13 ar
  25   12   30 1
  26   13   14 ar
  27   13   17 1
  28   14   15 ar
  29   14   31 1
  30   15   32 1
  31   17   33 1
  32   17   34 1
  33   18   19 1
  34   18   21 1
  35   18   20 1
  36   19   35 1
  37   19   36 1
  38   19   37 1
  39   20   38 1
  40   20   39 1
  41   20   40 1
  42   21   41 1
  43   21   42 1
  44   21   43 1

#	End of record

