#	Name: ASD03320222
#	Creating user name:	WinNT
#	Creation time:	15. 06. 2019 20:36

#	Modifying user name:	WinNT
#	Modification time:	15. 06. 2019 20:36

#	Program:	/corina/corina34_cracker 3.40 0067  02.08.2006

@<TRIPOS>MOLECULE
ASD03320222
  38   40    0    0    0
SMALL
NO_CHARGES


@<TRIPOS>ATOM
   1 C1            -0.0073     1.3431    -0.1945 C.ar    
   2 C2             0.0219    -0.0350     0.0266 C.ar    
   3 N3            -1.0906    -0.7399     0.0439 N.ar    
   4 C4            -2.2724    -0.1854    -0.1446 C.ar    
   5 C5            -2.3920     1.1870    -0.3730 C.ar    
   6 C6            -1.2408     1.9725    -0.3938 C.ar    
   7 C7             1.2456     2.1264    -0.2117 C.2     
   8 O8             1.2098     3.3261    -0.4051 O.2     
   9 N9             2.4279     1.5108    -0.0130 N.am    
  10 C10            3.6217     2.2342    -0.1262 C.ar    
  11 C11           -3.7262     1.8012    -0.5849 C.ar    
  12 C12            3.6730     3.5590     0.2867 C.ar    
  13 C13            4.8504     4.2717     0.1747 C.ar    
  14 C14            5.9818     3.6644    -0.3502 C.ar    
  15 C15            5.9314     2.3410    -0.7629 C.ar    
  16 C16            4.7562     1.6253    -0.6462 C.ar    
  17 O17            7.1408     4.3669    -0.4606 O.3     
  18 C18            8.2665     3.6791    -1.0098 C.3     
  19 Cl19           9.6838     4.7924    -1.0628 Cl      
  20 F20            8.5724     2.5725    -0.2103 F       
  21 F21            7.9631     3.2485    -2.3058 F       
  22 C22           -4.6187     1.2570    -1.5115 C.ar    
  23 C23           -5.8529     1.8682    -1.6724 C.ar    
  24 C24           -6.1571     2.9877    -0.9158 C.ar    
  25 N25           -5.2918     3.4774    -0.0491 N.ar    
  26 C26           -4.1107     2.9265     0.1414 C.ar    
  27 F27           -6.7483     1.3775    -2.5572 F       
  28 Cl28          -3.6983    -1.1750    -0.1089 Cl      
  29 H29            0.9689    -0.5294     0.1853 H       
  30 H30           -1.2987     3.0369    -0.5675 H       
  31 H31            2.4521     0.5668     0.2084 H       
  32 H32            2.7921     4.0320     0.6951 H       
  33 H33            4.8903     5.3021     0.4955 H       
  34 H34            6.8127     1.8689    -1.1715 H       
  35 H35            4.7171     0.5950    -0.9676 H       
  36 H36           -4.3540     0.3830    -2.0881 H       
  37 H37           -7.1172     3.4672    -1.0375 H       
  38 H38           -3.4297     3.3570     0.8607 H       
@<TRIPOS>BOND
   1    1    2 ar
   2    1    7 1
   3    1    6 ar
   4    2    3 ar
   5    2   29 1
   6    3    4 ar
   7    4    5 ar
   8    4   28 1
   9    5    6 ar
  10    5   11 1
  11    6   30 1
  12    7    8 2
  13    7    9 am
  14    9   10 1
  15    9   31 1
  16   10   12 ar
  17   10   16 ar
  18   11   22 ar
  19   11   26 ar
  20   12   13 ar
  21   12   32 1
  22   13   14 ar
  23   13   33 1
  24   14   15 ar
  25   14   17 1
  26   15   16 ar
  27   15   34 1
  28   16   35 1
  29   17   18 1
  30   18   19 1
  31   18   20 1
  32   18   21 1
  33   22   23 ar
  34   22   36 1
  35   23   24 ar
  36   23   27 1
  37   24   25 ar
  38   24   37 1
  39   25   26 ar
  40   26   38 1

#	End of record

