#	Name: ASD03331853
#	Creating user name:	WinNT
#	Creation time:	15. 06. 2019 20:40

#	Modifying user name:	WinNT
#	Modification time:	15. 06. 2019 20:40

#	Program:	/corina/corina34_cracker 3.40 0067  02.08.2006

@<TRIPOS>MOLECULE
ASD03331853
  61   63    0    0    0
SMALL
NO_CHARGES


@<TRIPOS>ATOM
   1 C1             0.0382     2.0265    -1.5637 C.2     
   2 N2             0.0882     0.7545    -2.0402 N.pl3   
   3 C3            -1.1703     0.2465    -1.9880 C.2     
   4 N4            -1.9721     1.1678    -1.5021 N.2     
   5 C5            -1.2513     2.2794    -1.2285 C.2     
   6 C6             1.2435     2.9240    -1.4544 C.3     
   7 N7             2.4508     2.0858    -1.5563 N.4     
   8 C8             2.3639     1.2246    -2.7432 C.3     
   9 C9             1.3234     0.1210    -2.5111 C.3     
  10 C10           -1.7740     3.5396    -0.6714 C.2     
  11 O11           -1.0213     4.4731    -0.4683 O.2     
  12 N12           -3.0861     3.6576    -0.3868 N.am    
  13 C13           -3.6056     4.9104     0.1671 C.3     
  14 C14           -3.4263     4.9094     1.6865 C.3     
  15 C15           -1.5713    -1.1144    -2.4080 C.ar    
  16 C16            3.6354     2.9478    -1.6649 C.3     
  17 C17           -4.1237     3.6845     2.2816 C.3     
  18 C18           -5.0699     5.0377    -0.1658 C.2     
  19 C19           -1.9347     4.8611     2.0240 C.3     
  20 C20           -4.0410     6.1816     2.2735 C.3     
  21 O21           -5.6839     4.0765    -0.5780 O.2     
  22 N22           -5.6971     6.2199    -0.0055 N.am    
  23 C23           -7.1367     6.3251    -0.2559 C.3     
  24 C24           -0.6055    -2.1048    -2.5885 C.ar    
  25 C25            2.5670     1.2495    -0.3542 C.3     
  26 C26           -2.9173    -1.4139    -2.6197 C.ar    
  27 C27           -3.2848    -2.6849    -3.0114 C.ar    
  28 C28           -2.3218    -3.6613    -3.1938 C.ar    
  29 C29           -0.9859    -3.3719    -2.9804 C.ar    
  30 H30            1.2331     3.6541    -2.2637 H       
  31 H31            1.2330     3.4387    -0.4936 H       
  32 H32            2.0702     1.8240    -3.6049 H       
  33 H33            3.3366     0.7710    -2.9335 H       
  34 H34            1.6891    -0.5779    -1.7588 H       
  35 H35            1.1331    -0.4082    -3.4449 H       
  36 H36           -3.6863     2.9131    -0.5487 H       
  37 H37           -3.0609     5.7512    -0.2625 H       
  38 H38            3.7057     3.5816    -0.7809 H       
  39 H39            4.5294     2.3289    -1.7404 H       
  40 H40            3.5498     3.5726    -2.5539 H       
  41 H41           -3.6858     2.7782     1.8634 H       
  42 H42           -3.9960     3.6838     3.3641 H       
  43 H43           -5.1863     3.7190     2.0412 H       
  44 H44           -1.4378     5.7337     1.6000 H       
  45 H45           -1.8069     4.8604     3.1065 H       
  46 H46           -1.4968     3.9547     1.6058 H       
  47 H47           -5.0894     6.2463     1.9823 H       
  48 H48           -3.9669     6.1528     3.3606 H       
  49 H49           -3.5046     7.0521     1.8957 H       
  50 H50           -5.1953     7.0009     0.2756 H       
  51 H51           -7.6720     5.6503     0.4121 H       
  52 H52           -7.4629     7.3494    -0.0754 H       
  53 H53           -7.3463     6.0540    -1.2906 H       
  54 H54            0.4377    -1.8802    -2.4223 H       
  55 H55            1.6872     0.6117    -0.2689 H       
  56 H56            3.4599     0.6288    -0.4283 H       
  57 H57            2.6400     1.8875     0.5265 H       
  58 H58           -3.6701    -0.6528    -2.4770 H       
  59 H59           -4.3265    -2.9181    -3.1756 H       
  60 H60           -2.6146    -4.6548    -3.4998 H       
  61 H61           -0.2388    -4.1384    -3.1245 H       
@<TRIPOS>BOND
   1    1    2 1
   2    1    6 1
   3    1    5 2
   4    2    3 1
   5    2    9 1
   6    3    4 2
   7    3   15 1
   8    4    5 1
   9    5   10 1
  10    6    7 1
  11    6   30 1
  12    6   31 1
  13    7    8 1
  14    7   16 1
  15    7   25 1
  16    8    9 1
  17    8   32 1
  18    8   33 1
  19    9   34 1
  20    9   35 1
  21   10   11 2
  22   10   12 am
  23   12   13 1
  24   12   36 1
  25   13   14 1
  26   13   18 1
  27   13   37 1
  28   14   17 1
  29   14   19 1
  30   14   20 1
  31   15   26 ar
  32   15   24 ar
  33   16   38 1
  34   16   39 1
  35   16   40 1
  36   17   41 1
  37   17   42 1
  38   17   43 1
  39   18   21 2
  40   18   22 am
  41   19   44 1
  42   19   45 1
  43   19   46 1
  44   20   47 1
  45   20   48 1
  46   20   49 1
  47   22   23 1
  48   22   50 1
  49   23   51 1
  50   23   52 1
  51   23   53 1
  52   24   29 ar
  53   24   54 1
  54   25   55 1
  55   25   56 1
  56   25   57 1
  57   26   27 ar
  58   26   58 1
  59   27   28 ar
  60   27   59 1
  61   28   29 ar
  62   28   60 1
  63   29   61 1

#	End of record

