#	Name: ASD01940136
#	Creating user name:	WinNT
#	Creation time:	15. 06. 2019 20:11

#	Modifying user name:	WinNT
#	Modification time:	15. 06. 2019 20:11

#	Program:	/corina/corina34_cracker 3.40 0067  02.08.2006

@<TRIPOS>MOLECULE
ASD01940136
  64   65    0    0    0
SMALL
NO_CHARGES


@<TRIPOS>ATOM
   1 C1            -1.0874     1.0979    -1.6263 C.ar    
   2 C2            -1.6139     0.6060    -2.8065 C.ar    
   3 C3            -2.9824     0.4495    -2.9463 C.ar    
   4 C4            -3.8310     0.7858    -1.9037 C.ar    
   5 C5            -3.3080     1.2803    -0.7163 C.ar    
   6 C6            -1.9293     1.4311    -0.5758 C.ar    
   7 N7            -1.3959     1.9292     0.6204 N.am    
   8 S8            -1.8833     1.2965     2.0711 S.o2    
   9 O9            -1.0890     1.9754     3.0341 O.2     
  10 O10           -3.2973     1.4370     2.0574 O.2     
  11 F11           -3.4914    -0.0316    -4.1016 F       
  12 F12           -5.1661     0.6332    -2.0427 F       
  13 N13           -4.1635     1.6215     0.3403 N.pl3   
  14 C14           -5.1867     0.7482     0.7212 C.ar    
  15 C15           -6.5055     1.1910     0.7545 C.ar    
  16 C16           -4.8903    -0.5646     1.0617 C.ar    
  17 C17           -5.9037    -1.4254     1.4378 C.ar    
  18 C18           -7.2124    -0.9817     1.4752 C.ar    
  19 C19           -7.5138     0.3241     1.1318 C.ar    
  20 F20           -6.7997     2.4662     0.4191 F       
  21 C21           -8.3142    -1.9244     1.8855 C.3     
  22 C22           -1.4167    -0.4542     1.9811 C.3     
  23 C23           -1.9545    -1.2030     3.2021 C.3     
  24 C24           -1.9723    -1.0821     0.6908 C.3     
  25 C25            0.1185    -0.5890     1.9124 C.3     
  26 C26            0.4029     1.2663    -1.4792 C.3     
  27 C27            0.9958     0.0147    -0.8290 C.3     
  28 C28           -3.4796    -1.0868     3.2407 C.3     
  29 C29           -3.9820    -1.6422     4.5079 C.1     
  30 C30           -4.3828    -2.0852     5.5186 C.1     
  31 C31           -4.8852    -2.6406     6.7858 C.3     
  32 C32            0.3526    -1.7776     0.9472 C.3     
  33 C33           -0.7554    -1.5765    -0.1182 C.3     
  34 H34           -0.9558     0.3434    -3.6215 H       
  35 H35           -0.7412     2.6446     0.5988 H       
  36 H36           -4.0457     2.4636     0.8071 H       
  37 H37           -3.8684    -0.9130     1.0323 H       
  38 H38           -5.6730    -2.4467     1.7026 H       
  39 H39           -8.5373     0.6674     1.1621 H       
  40 H40           -8.4561    -1.8695     2.9648 H       
  41 H41           -9.2393    -1.6429     1.3826 H       
  42 H42           -8.0440    -2.9427     1.6059 H       
  43 H43           -1.6717    -2.2537     3.1376 H       
  44 H44           -1.5339    -0.7686     4.1090 H       
  45 H45           -2.6244    -1.9208     0.9345 H       
  46 H46           -2.5224    -0.3348     0.1188 H       
  47 H47            0.5639     0.3215     1.5113 H       
  48 H48            0.5264    -0.8121     2.8983 H       
  49 H49            0.8508     1.4120    -2.4622 H       
  50 H50            0.6105     2.1341    -0.8531 H       
  51 H51            0.6396    -0.0646     0.1981 H       
  52 H52            0.6867    -0.8673    -1.3899 H       
  53 H53            2.0836     0.0844    -0.8319 H       
  54 H54           -3.7660    -0.0378     3.1648 H       
  55 H55           -3.9075    -1.6416     2.4058 H       
  56 H56           -5.9718    -2.5578     6.8133 H       
  57 H57           -4.5988    -3.6895     6.8617 H       
  58 H58           -4.4573    -2.0857     7.6207 H       
  59 H59            1.3417    -1.7174     0.4930 H       
  60 H60            0.2215    -2.7275     1.4654 H       
  61 H61           -0.9845    -2.5200    -0.6135 H       
  62 H62           -0.4516    -0.8256    -0.8475 H       
  63 H63            7.0836     7.6446    12.6207 H       
  64 H64            7.0836     8.4046    12.6207 H       
@<TRIPOS>BOND
   1    1    2 ar
   2    1   26 1
   3    1    6 ar
   4    2    3 ar
   5    2   34 1
   6    3    4 ar
   7    3   11 1
   8    4    5 ar
   9    4   12 1
  10    5    6 ar
  11    5   13 1
  12    6    7 1
  13    7    8 am
  14    7   35 1
  15    8    9 2
  16    8   10 2
  17    8   22 1
  18   13   14 1
  19   13   36 1
  20   14   15 ar
  21   14   16 ar
  22   15   20 1
  23   15   19 ar
  24   16   17 ar
  25   16   37 1
  26   17   18 ar
  27   17   38 1
  28   18   19 ar
  29   18   21 1
  30   19   39 1
  31   21   40 1
  32   21   41 1
  33   21   42 1
  34   22   23 1
  35   22   24 1
  36   22   25 1
  37   23   28 1
  38   23   43 1
  39   23   44 1
  40   24   33 1
  41   24   45 1
  42   24   46 1
  43   25   32 1
  44   25   47 1
  45   25   48 1
  46   26   27 1
  47   26   49 1
  48   26   50 1
  49   27   51 1
  50   27   52 1
  51   27   53 1
  52   28   29 1
  53   28   54 1
  54   28   55 1
  55   29   30 3
  56   30   31 1
  57   31   56 1
  58   31   57 1
  59   31   58 1
  60   32   33 1
  61   32   59 1
  62   32   60 1
  63   33   61 1
  64   33   62 1
  65   63   64 1

#	End of record

