#	Name: ASD08070048
#	Creating user name:	WinNT
#	Creation time:	15. 06. 2019 21:14

#	Modifying user name:	WinNT
#	Modification time:	15. 06. 2019 21:14

#	Program:	/corina/corina34_cracker 3.40 0067  02.08.2006

@<TRIPOS>MOLECULE
ASD08070048
  40   41    0    0    0
SMALL
NO_CHARGES


@<TRIPOS>ATOM
   1 C1            -0.2811     2.2116     0.4956 C.ar    
   2 C2            -0.0945     0.8289     0.4532 C.ar    
   3 C3            -1.1862    -0.0124     0.3676 C.ar    
   4 C4            -2.4765     0.5227     0.3237 C.ar    
   5 C5            -2.6565     1.9071     0.3666 C.ar    
   6 C6            -1.5631     2.7420     0.4471 C.ar    
   7 O7             0.9401     2.8126     0.5782 O.3     
   8 C8             1.8505     1.7796     0.9988 C.3     
   9 O9             1.2446     0.5685     0.5099 O.3     
  10 C10           -3.6462    -0.3729     0.2317 C.2     
  11 N11           -4.8898     0.1449     0.1895 N.am    
  12 O12           -3.4878    -1.5778     0.1940 O.2     
  13 C13           -6.0507    -0.7440     0.0982 C.3     
  14 C14           -6.4437    -1.2005     1.4795 C.2     
  15 C15           -7.2194     0.0075    -0.5423 C.3     
  16 C16           -6.8562     0.3855    -1.9798 C.3     
  17 C17           -6.7001    -0.8853    -2.8173 C.3     
  18 O18           -5.8182    -0.8222     2.4416 O.2     
  19 O19           -7.4886    -2.0275     1.6412 O.3     
  20 C20           -7.8098    -2.4260     2.9999 C.3     
  21 C21           -7.9659     1.2550    -2.5743 C.3     
  22 H22           -1.0430    -1.0823     0.3343 H       
  23 H23           -3.6524     2.3234     0.3329 H       
  24 H24           -1.7044     3.8122     0.4805 H       
  25 H25            2.8314     1.9265     0.5468 H       
  26 H26            1.9282     1.7571     2.0858 H       
  27 H27           -5.0162     1.1062     0.2195 H       
  28 H28           -5.7976    -1.6106    -0.5126 H       
  29 H29           -8.1030    -0.6306    -0.5467 H       
  30 H30           -7.4271     0.9118     0.0297 H       
  31 H31           -5.9182     0.9407    -1.9835 H       
  32 H32           -7.6381    -1.4405    -2.8136 H       
  33 H33           -6.4413    -0.6161    -3.8414 H       
  34 H34           -5.9095    -1.5048    -2.3937 H       
  35 H35           -6.9564    -2.9432     3.4383 H       
  36 H36           -8.0421    -1.5412     3.5927 H       
  37 H37           -8.6722    -3.0925     2.9888 H       
  38 H38           -8.1368     2.1171    -1.9296 H       
  39 H39           -7.6683     1.5962    -3.5659 H       
  40 H40           -8.8832     0.6712    -2.6511 H       
@<TRIPOS>BOND
   1    1    2 ar
   2    1    7 1
   3    1    6 ar
   4    2    3 ar
   5    2    9 1
   6    3    4 ar
   7    3   22 1
   8    4    5 ar
   9    4   10 1
  10    5    6 ar
  11    5   23 1
  12    6   24 1
  13    7    8 1
  14    8    9 1
  15    8   25 1
  16    8   26 1
  17   10   11 am
  18   10   12 2
  19   11   13 1
  20   11   27 1
  21   13   14 1
  22   13   15 1
  23   13   28 1
  24   14   18 2
  25   14   19 1
  26   15   16 1
  27   15   29 1
  28   15   30 1
  29   16   17 1
  30   16   21 1
  31   16   31 1
  32   17   32 1
  33   17   33 1
  34   17   34 1
  35   19   20 1
  36   20   35 1
  37   20   36 1
  38   20   37 1
  39   21   38 1
  40   21   39 1
  41   21   40 1

#	End of record

