#	Name: ASD04590663
#	Creating user name:	WinNT
#	Creation time:	15. 06. 2019 20:51

#	Modifying user name:	WinNT
#	Modification time:	15. 06. 2019 20:51

#	Program:	/corina/corina34_cracker 3.40 0067  02.08.2006

@<TRIPOS>MOLECULE
ASD04590663
  33   36    0    0    0
SMALL
NO_CHARGES


@<TRIPOS>ATOM
   1 N1            -0.0159     1.3234     0.0093 N.ar    
   2 C2             0.0021    -0.0041     0.0020 C.ar    
   3 N3             1.1298    -0.6966    -0.0120 N.ar    
   4 C4             2.3057    -0.0751    -0.0199 C.ar    
   5 C5             2.3215     1.3357    -0.0129 C.ar    
   6 C6             1.1077     2.0204     0.0023 C.ar    
   7 N7             3.6018    -0.5139    -0.0347 N.pl3   
   8 C8             4.4903     0.5734    -0.0378 C.2     
   9 C9             3.7269     1.7305    -0.0246 C.2     
  10 S10           -1.5297    -0.8748     0.0120 S.3     
  11 C11            4.0061    -1.9219    -0.0457 C.3     
  12 C12            3.4685    -2.6345     1.2076 C.3     
  13 C13            2.5398    -3.7612     0.7097 C.3     
  14 C14            3.0330    -4.0518    -0.7295 C.3     
  15 C15            3.3854    -2.6405    -1.2615 C.3     
  16 C16            5.8593     0.8361    -0.0502 C.2     
  17 N17            6.2613     2.0670    -0.0482 N.2     
  18 S18            4.8866     3.0611    -0.0296 S.3     
  19 C19           -2.6837     0.5195     0.0305 C.3     
  20 H20            1.0853     3.1002     0.0076 H       
  21 H21            5.0929    -1.9978    -0.0811 H       
  22 H22            4.2943    -3.0570     1.7801 H       
  23 H23            2.9068    -1.9327     1.8241 H       
  24 H24            2.6457    -4.6474     1.3355 H       
  25 H25            1.5034    -3.4237     0.6970 H       
  26 H26            3.9162    -4.6903    -0.7136 H       
  27 H27            2.2398    -4.5025    -1.3260 H       
  28 H28            2.4856    -2.1219    -1.5926 H       
  29 H29            4.1084    -2.7087    -2.0744 H       
  30 H30            6.5732     0.0258    -0.0609 H       
  31 H31           -2.5110     1.1223     0.9221 H       
  32 H32           -2.5280     1.1318    -0.8578 H       
  33 H33           -3.7070     0.1442     0.0382 H       
@<TRIPOS>BOND
   1    1    2 ar
   2    1    6 ar
   3    2    3 ar
   4    2   10 1
   5    3    4 ar
   6    4    5 ar
   7    4    7 1
   8    5    6 ar
   9    5    9 1
  10    6   20 1
  11    7    8 1
  12    7   11 1
  13    8    9 2
  14    8   16 1
  15    9   18 1
  16   10   19 1
  17   11   12 1
  18   11   15 1
  19   11   21 1
  20   12   13 1
  21   12   22 1
  22   12   23 1
  23   13   14 1
  24   13   24 1
  25   13   25 1
  26   14   15 1
  27   14   26 1
  28   14   27 1
  29   15   28 1
  30   15   29 1
  31   16   17 2
  32   16   30 1
  33   17   18 1
  34   19   31 1
  35   19   32 1
  36   19   33 1

#	End of record

