#	Name: ASD01180034
#	Creating user name:	WinNT
#	Creation time:	15. 06. 2019 19:06

#	Modifying user name:	WinNT
#	Modification time:	15. 06. 2019 19:06

#	Program:	/corina/corina34_cracker 3.40 0067  02.08.2006

@<TRIPOS>MOLECULE
ASD01180034
  39   40    0    0    0
SMALL
NO_CHARGES


@<TRIPOS>ATOM
   1 N1            -0.2293     1.3143     0.2299 N.ar    
   2 C2            -0.2114     0.0025     0.3063 C.ar    
   3 C3             0.9734    -0.7070     0.1078 C.ar    
   4 N4             2.0960    -0.0782    -0.1593 N.ar    
   5 C5             2.1047     1.2565    -0.2425 C.ar    
   6 C6             3.2898     1.9563    -0.5261 C.ar    
   7 C7             3.2697     3.3180    -0.6048 C.ar    
   8 C8             2.0771     4.0320    -0.4055 C.ar    
   9 C9             0.9111     3.3807    -0.1282 C.ar    
  10 C10            0.8995     1.9782    -0.0411 C.ar    
  11 S11           -1.6999    -0.8698     0.6641 S.o2    
  12 O12           -2.7302     0.0737     0.4043 O.2     
  13 O13           -1.5951    -2.0673    -0.0938 O.2     
  14 C14           -1.5985    -1.2291     2.4392 C.3     
  15 O15            2.0847     5.3882    -0.4895 O.3     
  16 O16            4.4176     3.9915    -0.8787 O.3     
  17 C17            0.8283    -2.8084    -1.2007 C.3     
  18 C18            0.9658    -2.2111     0.2011 C.3     
  19 C19            0.8406     6.0584    -0.2771 C.3     
  20 C20            5.5983     3.2099    -1.0710 C.3     
  21 C21            0.7414    -4.3326    -1.0994 C.3     
  22 H22            4.2133     1.4181    -0.6809 H       
  23 H23            0.0003     3.9407     0.0238 H       
  24 H24           -1.4419    -0.3012     2.9894 H       
  25 H25           -2.5271    -1.6949     2.7693 H       
  26 H26           -0.7657    -1.9071     2.6258 H       
  27 H27           -0.0758    -2.4235    -1.6726 H       
  28 H28            1.6963    -2.5329    -1.7998 H       
  29 H29            1.8981    -2.5519     0.6514 H       
  30 H30            0.1260    -2.5327     0.8171 H       
  31 H31            0.9867     7.1344    -0.3722 H       
  32 H32            0.1160     5.7231    -1.0191 H       
  33 H33            0.4703     5.8289     0.7220 H       
  34 H34            6.4402     3.8693    -1.2820 H       
  35 H35            5.8045     2.6350    -0.1682 H       
  36 H36            5.4509     2.5292    -1.9095 H       
  37 H37            0.6434    -4.7581    -2.0982 H       
  38 H38            1.6455    -4.7174    -0.6276 H       
  39 H39           -0.1265    -4.6080    -0.5004 H       
@<TRIPOS>BOND
   1    1    2 ar
   2    1   10 ar
   3    2    3 ar
   4    2   11 1
   5    3    4 ar
   6    3   18 1
   7    4    5 ar
   8    5    6 ar
   9    5   10 ar
  10    6    7 ar
  11    6   22 1
  12    7    8 ar
  13    7   16 1
  14    8    9 ar
  15    8   15 1
  16    9   10 ar
  17    9   23 1
  18   11   12 2
  19   11   13 2
  20   11   14 1
  21   14   24 1
  22   14   25 1
  23   14   26 1
  24   15   19 1
  25   16   20 1
  26   17   21 1
  27   17   18 1
  28   17   27 1
  29   17   28 1
  30   18   29 1
  31   18   30 1
  32   19   31 1
  33   19   32 1
  34   19   33 1
  35   20   34 1
  36   20   35 1
  37   20   36 1
  38   21   37 1
  39   21   38 1
  40   21   39 1

#	End of record

