#	Name: ASD08150032
#	Creating user name:	WinNT
#	Creation time:	15. 06. 2019 21:15

#	Modifying user name:	WinNT
#	Modification time:	15. 06. 2019 21:15

#	Program:	/corina/corina34_cracker 3.40 0067  02.08.2006

@<TRIPOS>MOLECULE
ASD08150032
  55   59    0    0    0
SMALL
NO_CHARGES


@<TRIPOS>ATOM
   1 N1            -0.0157     1.2951    -0.0517 N.2     
   2 C2             0.0018    -0.0026    -0.0878 C.2     
   3 N3             1.1486    -0.7346    -0.1047 N.am    
   4 C4             2.3560    -0.1234    -0.0841 C.2     
   5 C5             2.3702     1.3460    -0.0436 C.ar    
   6 C6             3.5601     2.0709    -0.0195 C.ar    
   7 C7             3.5158     3.4472     0.0187 C.ar    
   8 C8             2.2979     4.1146     0.0336 C.ar    
   9 C9             1.1111     3.4173     0.0107 C.ar    
  10 C10            1.1296     2.0215    -0.0285 C.ar    
  11 O11            3.3900    -0.7656    -0.0981 O.2     
  12 C12            4.8858     1.3543    -0.0344 C.3     
  13 C13            1.0790    -2.1330    -0.1434 C.ar    
  14 C14            1.0411    -2.8608     1.0388 C.ar    
  15 C15            0.9720    -4.2393     0.9973 C.ar    
  16 C16            0.9410    -4.8953    -0.2199 C.ar    
  17 C17            0.9791    -4.1736    -1.3986 C.ar    
  18 C18            1.0420    -2.7941    -1.3638 C.ar    
  19 C19            1.0757    -2.1469     2.3655 C.3     
  20 C20           -0.1925    -2.4764     3.1553 C.3     
  21 C21            2.3028    -2.6024     3.1578 C.3     
  22 C22           -1.3148    -0.7354    -0.1116 C.3     
  23 N23           -3.9986     1.5254     0.6756 N.2     
  24 C24           -3.0841     0.6651     1.0180 C.2     
  25 N25           -2.4134     0.2336    -0.0875 N.pl3   
  26 C26           -2.9555     0.8734    -1.1734 C.ar    
  27 N27           -2.7244     0.8607    -2.4820 N.ar    
  28 C28           -3.4366     1.6107    -3.2964 C.ar    
  29 N29           -4.4020     2.4033    -2.8680 N.ar    
  30 C30           -4.7052     2.4825    -1.5764 C.ar    
  31 C31           -3.9730     1.7002    -0.6676 C.ar    
  32 N32           -5.7184     3.3165    -1.1369 N.pl3   
  33 H33            4.4361     4.0122     0.0375 H       
  34 H34            2.2816     5.1941     0.0639 H       
  35 H35            0.1701     3.9472     0.0233 H       
  36 H36            5.1541     1.1079    -1.0617 H       
  37 H37            5.6520     1.9987     0.3966 H       
  38 H38            4.8102     0.4381     0.5511 H       
  39 H39            0.9424    -4.8059     1.9163 H       
  40 H40            0.8873    -5.9736    -0.2497 H       
  41 H41            0.9551    -4.6887    -2.3475 H       
  42 H42            1.0668    -2.2307    -2.2848 H       
  43 H43            1.1302    -1.0712     2.1980 H       
  44 H44           -0.2470    -3.5521     3.3229 H       
  45 H45           -0.1674    -1.9601     4.1149 H       
  46 H46           -1.0667    -2.1519     2.5908 H       
  47 H47            3.2063    -2.3676     2.5952 H       
  48 H48            2.3279    -2.0860     4.1174 H       
  49 H49            2.2483    -3.6781     3.3254 H       
  50 H50           -1.3800    -1.3360    -1.0189 H       
  51 H51           -1.3846    -1.3856     0.7604 H       
  52 H52           -2.8857     0.3411     2.0289 H       
  53 H53           -3.2231     1.5768    -4.3545 H       
  54 H54           -6.2166     3.8519    -1.7741 H       
  55 H55           -5.9304     3.3656    -0.1916 H       
@<TRIPOS>BOND
   1    1    2 2
   2    1   10 1
   3    2    3 1
   4    2   22 1
   5    3    4 am
   6    3   13 1
   7    4    5 1
   8    4   11 2
   9    5    6 ar
  10    5   10 ar
  11    6    7 ar
  12    6   12 1
  13    7    8 ar
  14    7   33 1
  15    8    9 ar
  16    8   34 1
  17    9   10 ar
  18    9   35 1
  19   12   36 1
  20   12   37 1
  21   12   38 1
  22   13   14 ar
  23   13   18 ar
  24   14   15 ar
  25   14   19 1
  26   15   16 ar
  27   15   39 1
  28   16   17 ar
  29   16   40 1
  30   17   18 ar
  31   17   41 1
  32   18   42 1
  33   19   20 1
  34   19   21 1
  35   19   43 1
  36   20   44 1
  37   20   45 1
  38   20   46 1
  39   21   47 1
  40   21   48 1
  41   21   49 1
  42   22   25 1
  43   22   50 1
  44   22   51 1
  45   23   24 2
  46   23   31 1
  47   24   25 1
  48   24   52 1
  49   25   26 1
  50   26   27 ar
  51   26   31 ar
  52   27   28 ar
  53   28   29 ar
  54   28   53 1
  55   29   30 ar
  56   30   31 ar
  57   30   32 1
  58   32   54 1
  59   32   55 1

#	End of record

