#	Name: ASD01190153
#	Creating user name:	WinNT
#	Creation time:	15. 06. 2019 19:07

#	Modifying user name:	WinNT
#	Modification time:	15. 06. 2019 19:07

#	Program:	/corina/corina34_cracker 3.40 0067  02.08.2006

@<TRIPOS>MOLECULE
ASD01190153
  51   55    0    0    0
SMALL
NO_CHARGES


@<TRIPOS>ATOM
   1 C1            -0.0187     1.5258     0.0104 C.3     
   2 C2            -0.0191     0.0016    -0.1230 C.3     
   3 S3             2.7355     1.6346    -0.9354 S.3     
   4 C4             3.7900     2.5917     0.0105 C.2     
   5 N5             3.1458     3.1103     1.0095 N.2     
   6 C6             1.8609     2.8189     1.1073 C.2     
   7 C7             1.3992     2.0177     0.1468 C.2     
   8 N8             5.1372     2.7853    -0.2520 N.3     
   9 C9             5.7498     3.6623     0.7563 C.3     
  10 C10            7.2460     3.8007     0.4632 C.3     
  11 O11            7.4223     4.2982    -0.8660 O.3     
  12 C12            6.8384     3.4680    -1.8736 C.3     
  13 C13            5.3380     3.3263    -1.6041 C.3     
  14 N14           -2.1638     3.7070    -4.7065 N.pl3   
  15 N15           -1.2010     3.2506    -5.6126 N.2     
  16 C16           -0.2889     2.5614    -4.9874 C.2     
  17 C17           -0.6388     2.5391    -3.5707 C.ar    
  18 C18           -0.0547     1.9702    -2.4334 C.ar    
  19 C19           -0.6469     2.1375    -1.2152 C.ar    
  20 C20           -1.8239     2.8663    -1.0943 C.ar    
  21 C21           -2.4131     3.4307    -2.1901 C.ar    
  22 C22           -1.8317     3.2773    -3.4458 C.ar    
  23 C23           -3.2838     4.4830    -5.0323 C.ar    
  24 C24           -3.2003     5.4360    -6.0390 C.ar    
  25 C25           -4.3055     6.2000    -6.3586 C.ar    
  26 C26           -5.4963     6.0163    -5.6760 C.ar    
  27 C27           -5.5817     5.0664    -4.6718 C.ar    
  28 C28           -4.4805     4.2964    -4.3530 C.ar    
  29 F29           -6.5762     6.7650    -5.9898 F       
  30 F30            0.5641    -0.5663     1.0147 F       
  31 F31           -1.3354    -0.4550    -0.2496 F       
  32 F32            0.7135    -0.3675    -1.2562 F       
  33 O33           -0.7670     1.9028     1.1679 O.3     
  34 H34            1.2351     3.1988     1.9013 H       
  35 H35            5.2791     4.6448     0.7184 H       
  36 H36            5.6115     3.2298     1.7472 H       
  37 H37            7.6935     4.4953     1.1741 H       
  38 H38            7.7263     2.8264     0.5538 H       
  39 H39            6.9911     3.9221    -2.8527 H       
  40 H40            7.3068     2.4841    -1.8509 H       
  41 H41            4.8992     2.6485    -2.3363 H       
  42 H42            4.8608     4.3034    -1.6798 H       
  43 H43            0.5725     2.0903    -5.4374 H       
  44 H44            0.8595     1.4017    -2.5192 H       
  45 H45           -2.2786     2.9876    -0.1223 H       
  46 H46           -3.3280     3.9944    -2.0825 H       
  47 H47           -2.2717     5.5799    -6.5713 H       
  48 H48           -4.2409     6.9415    -7.1411 H       
  49 H49           -6.5112     4.9249    -4.1404 H       
  50 H50           -4.5488     3.5524    -3.5731 H       
  51 H51           -0.8092     2.8576     1.3153 H       
@<TRIPOS>BOND
   1    1    2 1
   2    1    7 1
   3    1   19 1
   4    1   33 1
   5    2   30 1
   6    2   31 1
   7    2   32 1
   8    3    4 1
   9    3    7 1
  10    4    5 2
  11    4    8 1
  12    5    6 1
  13    6    7 2
  14    6   34 1
  15    8    9 1
  16    8   13 1
  17    9   10 1
  18    9   35 1
  19    9   36 1
  20   10   11 1
  21   10   37 1
  22   10   38 1
  23   11   12 1
  24   12   13 1
  25   12   39 1
  26   12   40 1
  27   13   41 1
  28   13   42 1
  29   14   15 1
  30   14   22 1
  31   14   23 1
  32   15   16 2
  33   16   17 1
  34   16   43 1
  35   17   18 ar
  36   17   22 ar
  37   18   19 ar
  38   18   44 1
  39   19   20 ar
  40   20   21 ar
  41   20   45 1
  42   21   22 ar
  43   21   46 1
  44   23   24 ar
  45   23   28 ar
  46   24   25 ar
  47   24   47 1
  48   25   26 ar
  49   25   48 1
  50   26   27 ar
  51   26   29 1
  52   27   28 ar
  53   27   49 1
  54   28   50 1
  55   33   51 1

#	End of record

