#	Name: ASD01881064
#	Creating user name:	WinNT
#	Creation time:	15. 06. 2019 19:41

#	Modifying user name:	WinNT
#	Modification time:	15. 06. 2019 19:41

#	Program:	/corina/corina34_cracker 3.40 0067  02.08.2006

@<TRIPOS>MOLECULE
ASD01881064
  42   44    0    0    0
SMALL
NO_CHARGES


@<TRIPOS>ATOM
   1 O1             0.1360     1.3060     0.0648 O.3     
   2 C2            -0.0558    -0.1297    -0.0929 C.3     
   3 C3             1.3745    -0.6829    -0.2434 C.3     
   4 N4             2.2243     0.5143    -0.1532 N.am    
   5 C5             1.4428     1.5889     0.0201 C.2     
   6 C6            -0.7314    -0.7199     1.1466 C.3     
   7 O7            -2.0628    -0.2114     1.2510 O.3     
   8 O8             1.8809     2.7173     0.1264 O.2     
   9 C9             3.6214     0.5287    -0.2349 C.ar    
  10 C10            4.3119     1.7293    -0.1347 C.ar    
  11 C11            5.6906     1.7401    -0.2158 C.ar    
  12 C12            6.3834     0.5571    -0.3970 C.ar    
  13 C13            5.6986    -0.6400    -0.4976 C.ar    
  14 C14            4.3203    -0.6583    -0.4106 C.ar    
  15 C15           -2.8062    -0.6398     2.3058 C.ar    
  16 C16           -4.1070    -0.1855     2.4672 C.ar    
  17 C17           -4.8625    -0.6201     3.5382 C.ar    
  18 C18           -4.3201    -1.5121     4.4536 C.ar    
  19 C19           -3.0181    -1.9665     4.2914 C.ar    
  20 C20           -2.2656    -1.5354     3.2168 C.ar    
  21 N21           -5.0860    -1.9532     5.5407 N.am    
  22 C22           -6.4107    -2.1538     5.3945 C.2     
  23 O23           -6.9548    -1.8723     4.3476 O.2     
  24 C24           -7.2160    -2.7277     6.5318 C.3     
  25 H25           -0.6432    -0.3409    -0.9865 H       
  26 H26            1.6036    -1.3770     0.5652 H       
  27 H27            1.4975    -1.1676    -1.2119 H       
  28 H28           -0.7630    -1.8060     1.0607 H       
  29 H29           -0.1656    -0.4420     2.0358 H       
  30 H30            3.7714     2.6536     0.0061 H       
  31 H31            6.2283     2.6735    -0.1380 H       
  32 H32            7.4614     0.5683    -0.4605 H       
  33 H33            6.2425    -1.5622    -0.6398 H       
  34 H34            3.7861    -1.5936    -0.4893 H       
  35 H35           -4.5287     0.5086     1.7553 H       
  36 H36           -5.8751    -0.2661     3.6639 H       
  37 H37           -2.5955    -2.6600     5.0032 H       
  38 H38           -1.2528    -1.8887     3.0905 H       
  39 H39           -4.6629    -2.1143     6.3985 H       
  40 H40           -7.5924    -1.9171     7.1558 H       
  41 H41           -8.0545    -3.2977     6.1318 H       
  42 H42           -6.5834    -3.3833     7.1302 H       
@<TRIPOS>BOND
   1    1    2 1
   2    1    5 1
   3    2    3 1
   4    2    6 1
   5    2   25 1
   6    3    4 1
   7    3   26 1
   8    3   27 1
   9    4    5 am
  10    4    9 1
  11    5    8 2
  12    6    7 1
  13    6   28 1
  14    6   29 1
  15    7   15 1
  16    9   10 ar
  17    9   14 ar
  18   10   11 ar
  19   10   30 1
  20   11   12 ar
  21   11   31 1
  22   12   13 ar
  23   12   32 1
  24   13   14 ar
  25   13   33 1
  26   14   34 1
  27   15   16 ar
  28   15   20 ar
  29   16   17 ar
  30   16   35 1
  31   17   18 ar
  32   17   36 1
  33   18   19 ar
  34   18   21 1
  35   19   20 ar
  36   19   37 1
  37   20   38 1
  38   21   22 am
  39   21   39 1
  40   22   23 2
  41   22   24 1
  42   24   40 1
  43   24   41 1
  44   24   42 1

#	End of record

