#	Name: ASD09200010
#	Creating user name:	WinNT
#	Creation time:	15. 06. 2019 21:21

#	Modifying user name:	WinNT
#	Modification time:	15. 06. 2019 21:21

#	Program:	/corina/corina34_cracker 3.40 0067  02.08.2006

@<TRIPOS>MOLECULE
ASD09200010
  48   50    0    0    0
SMALL
NO_CHARGES


@<TRIPOS>ATOM
   1 C1            -0.0170     1.4034     0.0098 C.ar    
   2 C2             0.0021    -0.0041     0.0020 C.ar    
   3 C3             1.2378    -0.6465    -0.0132 C.ar    
   4 N4             2.3427     0.0819    -0.0199 N.ar    
   5 C5             2.2887     1.4060    -0.0122 C.ar    
   6 N6             1.1368     2.0604     0.0023 N.ar    
   7 C7            -1.2600    -0.7822     0.0104 C.ar    
   8 C8            -1.5774    -1.5891     1.1021 C.ar    
   9 C9            -2.7533    -2.3110     1.1043 C.ar    
  10 C10           -3.6167    -2.2353     0.0259 C.ar    
  11 C11           -3.3071    -1.4365    -1.0599 C.ar    
  12 C12           -2.1364    -0.7054    -1.0707 C.ar    
  13 N13            3.4698     2.1260    -0.0192 N.3     
  14 C14            4.6336     1.2288    -0.0347 C.3     
  15 C15            5.9150     2.0611    -0.1223 C.3     
  16 N16            5.9779     2.9807     1.0223 N.3     
  17 C17            4.8142     3.8780     1.0378 C.3     
  18 C18            3.5327     3.0457     1.1253 C.3     
  19 N19           -1.2176     2.0905     0.0192 N.pl3   
  20 C20            7.1301     1.1316    -0.0976 C.3     
  21 C21            4.9027     4.8079     2.2495 C.3     
  22 C22           -4.2527    -1.3593    -2.2307 C.3     
  23 C23           -1.8036     0.1697    -2.2516 C.3     
  24 H24            1.2936    -1.7251    -0.0192 H       
  25 H25           -0.9040    -1.6492     1.9443 H       
  26 H26           -3.0000    -2.9367     1.9494 H       
  27 H27           -4.5358    -2.8024     0.0318 H       
  28 H28            4.6473     0.6351     0.8794 H       
  29 H29            4.5705     0.5663    -0.8980 H       
  30 H30            5.9138     2.6340    -1.0495 H       
  31 H31            6.0543     2.4726     1.8906 H       
  32 H32            4.8005     4.4716     0.1237 H       
  33 H33            2.6671     3.7079     1.1078 H       
  34 H34            3.5339     2.4727     2.0526 H       
  35 H35           -2.0558     1.6023     0.0205 H       
  36 H36           -1.2213     3.0605     0.0245 H       
  37 H37            7.0821     0.4483    -0.9455 H       
  38 H38            8.0425     1.7246    -0.1600 H       
  39 H39            7.1312     0.5596     0.8303 H       
  40 H40            5.8163     5.3991     2.1879 H       
  41 H41            4.0394     5.4732     2.2608 H       
  42 H42            4.9153     4.2137     3.1633 H       
  43 H43           -4.9652    -0.5503    -2.0696 H       
  44 H44           -3.6870    -1.1691    -3.1428 H       
  45 H45           -4.7900    -2.3029    -2.3266 H       
  46 H46           -1.2398    -0.4077    -2.9843 H       
  47 H47           -2.7255     0.5324    -2.7062 H       
  48 H48           -1.2048     1.0174    -1.9183 H       
@<TRIPOS>BOND
   1    1    2 ar
   2    1    6 ar
   3    1   19 1
   4    2    3 ar
   5    2    7 1
   6    3    4 ar
   7    3   24 1
   8    4    5 ar
   9    5    6 ar
  10    5   13 1
  11    7    8 ar
  12    7   12 ar
  13    8    9 ar
  14    8   25 1
  15    9   10 ar
  16    9   26 1
  17   10   11 ar
  18   10   27 1
  19   11   12 ar
  20   11   22 1
  21   12   23 1
  22   13   14 1
  23   13   18 1
  24   14   15 1
  25   14   28 1
  26   14   29 1
  27   15   16 1
  28   15   20 1
  29   15   30 1
  30   16   17 1
  31   16   31 1
  32   17   18 1
  33   17   21 1
  34   17   32 1
  35   18   33 1
  36   18   34 1
  37   19   35 1
  38   19   36 1
  39   20   37 1
  40   20   38 1
  41   20   39 1
  42   21   40 1
  43   21   41 1
  44   21   42 1
  45   22   43 1
  46   22   44 1
  47   22   45 1
  48   23   46 1
  49   23   47 1
  50   23   48 1

#	End of record

