#	Name: ASD01940027
#	Creating user name:	WinNT
#	Creation time:	15. 06. 2019 20:11

#	Modifying user name:	WinNT
#	Modification time:	15. 06. 2019 20:11

#	Program:	/corina/corina34_cracker 3.40 0067  02.08.2006

@<TRIPOS>MOLECULE
ASD01940027
  47   49    0    0    0
SMALL
NO_CHARGES


@<TRIPOS>ATOM
   1 C1            -0.3054     1.4700     0.4973 C.ar    
   2 C2            -0.3521     0.2643    -0.1901 C.ar    
   3 C3            -1.5466    -0.4198    -0.3044 C.ar    
   4 C4            -2.6997     0.0968     0.2671 C.ar    
   5 C5            -2.6545     1.3025     0.9548 C.ar    
   6 C6            -1.4592     1.9848     1.0747 C.ar    
   7 N7             0.9047     2.1632     0.6133 N.pl3   
   8 C8             0.9128     3.5464     0.6059 C.2     
   9 C9             1.9980     4.3823     0.8278 C.2     
  10 C10            1.6823     5.7398     0.7528 C.2     
  11 N11            0.4465     6.0410     0.4919 N.2     
  12 S12           -0.4186     4.5951     0.3125 S.3     
  13 O13            2.6234     6.7005     0.9440 O.3     
  14 C14            3.3530     3.8846     1.1153 C.2     
  15 N15            3.7428     3.6594     2.4191 N.pl3   
  16 N16            4.1869     3.6561     0.1352 N.2     
  17 C17            5.0915     3.1641     2.7053 C.3     
  18 C18            6.0642     4.3432     2.7728 C.3     
  19 C19            5.0902     2.4267     4.0459 C.3     
  20 O20            4.7954     3.3493     5.0967 O.3     
  21 O21           -3.8753    -0.5772     0.1536 O.3     
  22 C22           -3.8969    -1.6974    -0.6155 C.ar    
  23 C23           -3.5513    -2.9248    -0.0660 C.ar    
  24 C24           -3.5738    -4.0633    -0.8499 C.ar    
  25 C25           -3.9398    -3.9811    -2.1803 C.ar    
  26 C26           -4.2695    -1.6171    -1.9492 C.ar    
  27 Cl27          -3.0909    -3.0296     1.6045 Cl      
  28 Cl28          -4.0986     1.9492     1.6690 Cl      
  29 C29           -4.2845    -2.7582    -2.7315 C.ar    
  30 F30           -4.6415    -2.6804    -4.0322 F       
  31 H31            0.5456    -0.1384    -0.6356 H       
  32 H32           -1.5826    -1.3573    -0.8394 H       
  33 H33           -1.4237     2.9224     1.6095 H       
  34 H34            1.7377     1.6737     0.6989 H       
  35 H35            3.0773     6.9731     0.1348 H       
  36 H36            3.1239     3.8291     3.1465 H       
  37 H37            5.0799     3.3281     0.3247 H       
  38 H38            5.4029     2.4809     1.9152 H       
  39 H39            5.7528     5.0264     3.5629 H       
  40 H40            7.0677     3.9746     2.9857 H       
  41 H41            6.0651     4.8685     1.8177 H       
  42 H42            4.3337     1.6422     4.0283 H       
  43 H43            6.0706     1.9823     4.2171 H       
  44 H44            4.7779     2.9500     5.9772 H       
  45 H45           -3.3046    -5.0180    -0.4225 H       
  46 H46           -3.9566    -4.8718    -2.7909 H       
  47 H47           -4.5430    -0.6643    -2.3777 H       
@<TRIPOS>BOND
   1    1    2 ar
   2    1    7 1
   3    1    6 ar
   4    2    3 ar
   5    2   31 1
   6    3    4 ar
   7    3   32 1
   8    4    5 ar
   9    4   21 1
  10    5    6 ar
  11    5   28 1
  12    6   33 1
  13    7    8 1
  14    7   34 1
  15    8    9 2
  16    8   12 1
  17    9   10 1
  18    9   14 1
  19   10   11 2
  20   10   13 1
  21   11   12 1
  22   13   35 1
  23   14   15 1
  24   14   16 2
  25   15   17 1
  26   15   36 1
  27   16   37 1
  28   17   18 1
  29   17   19 1
  30   17   38 1
  31   18   39 1
  32   18   40 1
  33   18   41 1
  34   19   20 1
  35   19   42 1
  36   19   43 1
  37   20   44 1
  38   21   22 1
  39   22   23 ar
  40   22   26 ar
  41   23   24 ar
  42   23   27 1
  43   24   25 ar
  44   24   45 1
  45   25   29 ar
  46   25   46 1
  47   26   29 ar
  48   26   47 1
  49   29   30 1

#	End of record

