#	Name: ASD08178173
#	Creating user name:	WinNT
#	Creation time:	15. 06. 2019 21:18

#	Modifying user name:	WinNT
#	Modification time:	15. 06. 2019 21:18

#	Program:	/corina/corina34_cracker 3.40 0067  02.08.2006

@<TRIPOS>MOLECULE
ASD08178173
  56   59    0    0    0
SMALL
NO_CHARGES


@<TRIPOS>ATOM
   1 C1            -0.0155     1.2947     0.0092 C.2     
   2 N2             0.0021    -0.0041     0.0020 N.2     
   3 N3            -1.1080    -0.6053     0.0094 N.2     
   4 C4            -2.1692     0.1372     0.0235 C.2     
   5 S5            -1.6454     1.8216     0.0350 S.3     
   6 C6            -3.5951    -0.3504     0.0340 C.3     
   7 C7            -4.0644    -0.5229     1.4800 C.3     
   8 S8            -5.7808    -1.1098     1.4927 S.3     
   9 C9            -6.1506    -1.2511     3.2630 C.3     
  10 C10           -7.5659    -1.7364     3.4433 C.2     
  11 N11           -7.9450    -2.9721     3.5268 N.2     
  12 N12           -9.1820    -3.1745     3.6774 N.2     
  13 C13           -9.9603    -2.1362     3.7349 C.2     
  14 S14           -9.0029    -0.7234     3.5861 S.3     
  15 N15          -11.3414    -2.1663     3.8963 N.am    
  16 C16          -11.9812    -3.3472     4.0085 C.2     
  17 C17          -13.4776    -3.3798     4.1834 C.3     
  18 O18          -11.3526    -4.3836     3.9688 O.2     
  19 C19          -13.9407    -4.8104     4.2831 C.ar    
  20 C20          -14.0149    -5.4283     5.5175 C.ar    
  21 N21            1.1034     2.1206     0.0029 N.am    
  22 C22            2.3386     1.5818    -0.0123 C.2     
  23 C23            3.5511     2.4767    -0.0190 C.3     
  24 O24            2.4745     0.3766    -0.0205 O.2     
  25 C25            4.7989     1.6319    -0.0361 C.ar    
  26 C26            5.3595     1.2513    -1.2410 C.ar    
  27 C27            6.5041     0.4764    -1.2567 C.ar    
  28 C28            7.0884     0.0825    -0.0674 C.ar    
  29 C29            6.5283     0.4638     1.1375 C.ar    
  30 C30            5.3862     1.2424     1.1531 C.ar    
  31 C31          -14.2965    -5.5027     3.1409 C.ar    
  32 C32          -14.7223    -6.8150     3.2317 C.ar    
  33 C33          -14.7924    -7.4352     4.4646 C.ar    
  34 C34          -14.4404    -6.7413     5.6089 C.ar    
  35 Cl35         -14.5276    -7.5200     7.1580 Cl      
  36 H36           -4.2315     0.3769    -0.4702 H       
  37 H37           -3.6557    -1.3073    -0.4843 H       
  38 H38           -3.4280    -1.2502     1.9842 H       
  39 H39           -4.0038     0.4340     1.9984 H       
  40 H40           -5.4621    -1.9601     3.7226 H       
  41 H41           -6.0378    -0.2759     3.7367 H       
  42 H42          -11.8441    -1.3373     3.9281 H       
  43 H43          -13.7487    -2.8458     5.0942 H       
  44 H44          -13.9540    -2.9025     3.3270 H       
  45 H45          -13.7405    -4.8860     6.4103 H       
  46 H46            0.9948     3.0845     0.0095 H       
  47 H47            3.5296     3.1110    -0.9053 H       
  48 H48            3.5470     3.1008     0.8746 H       
  49 H49            4.9030     1.5591    -2.1701 H       
  50 H50            6.9417     0.1785    -2.1980 H       
  51 H51            7.9822    -0.5236    -0.0796 H       
  52 H52            6.9846     0.1558     2.0666 H       
  53 H53            4.9486     1.5404     2.0945 H       
  54 H54          -14.2423    -5.0182     2.1772 H       
  55 H55          -15.0006    -7.3553     2.3389 H       
  56 H56          -15.1257    -8.4601     4.5355 H       
@<TRIPOS>BOND
   1    1    2 2
   2    1   21 1
   3    1    5 1
   4    2    3 1
   5    3    4 2
   6    4    5 1
   7    4    6 1
   8    6    7 1
   9    6   36 1
  10    6   37 1
  11    7    8 1
  12    7   38 1
  13    7   39 1
  14    8    9 1
  15    9   10 1
  16    9   40 1
  17    9   41 1
  18   10   11 2
  19   10   14 1
  20   11   12 1
  21   12   13 2
  22   13   14 1
  23   13   15 1
  24   15   16 am
  25   15   42 1
  26   16   17 1
  27   16   18 2
  28   17   19 1
  29   17   43 1
  30   17   44 1
  31   19   20 ar
  32   19   31 ar
  33   20   34 ar
  34   20   45 1
  35   21   22 am
  36   21   46 1
  37   22   23 1
  38   22   24 2
  39   23   25 1
  40   23   47 1
  41   23   48 1
  42   25   26 ar
  43   25   30 ar
  44   26   27 ar
  45   26   49 1
  46   27   28 ar
  47   27   50 1
  48   28   29 ar
  49   28   51 1
  50   29   30 ar
  51   29   52 1
  52   30   53 1
  53   31   32 ar
  54   31   54 1
  55   32   33 ar
  56   32   55 1
  57   33   34 ar
  58   33   56 1
  59   34   35 1

#	End of record

