#	Name: ASD01810338
#	Creating user name:	WinNT
#	Creation time:	15. 06. 2019 19:24

#	Modifying user name:	WinNT
#	Modification time:	15. 06. 2019 19:24

#	Program:	/corina/corina34_cracker 3.40 0067  02.08.2006

@<TRIPOS>MOLECULE
ASD01810338
  42   43    0    0    0
SMALL
NO_CHARGES


@<TRIPOS>ATOM
   1 C1            -1.6032     1.3555    -0.9922 C.3     
   2 C2            -1.3714    -0.1516    -0.8670 C.3     
   3 C3            -0.4642    -0.6243    -2.0048 C.3     
   4 C4            -0.2323    -2.1314    -1.8796 C.3     
   5 C5             0.6748    -2.6041    -3.0174 C.3     
   6 C6             0.9067    -4.1112    -2.8922 C.3     
   7 O7             1.7540    -4.5527    -3.9548 O.3     
   8 C8             2.0606    -5.8762    -3.9902 C.2     
   9 N9             1.6250    -6.7472    -3.1152 N.2     
  10 S10            2.2692    -8.2442    -3.5755 S.3     
  11 N11            3.0542    -7.7471    -4.8311 N.2     
  12 C12            2.8689    -6.4578    -4.9655 C.2     
  13 C13            3.4787    -5.6772    -6.0619 C.2     
  14 C14            4.1363    -6.3223    -7.0005 C.2     
  15 C15            4.7989    -5.6225    -8.1543 C.3     
  16 C16            4.2511    -4.1985    -8.2777 C.3     
  17 N17            4.2993    -3.5621    -6.9511 N.3     
  18 C18            3.3137    -4.1846    -6.0557 C.3     
  19 C19            4.0753    -2.1139    -7.0534 C.3     
  20 H20           -0.6473     1.8762    -0.9349 H       
  21 H21           -2.0780     1.5718    -1.9492 H       
  22 H22           -2.2495     1.6923    -0.1816 H       
  23 H23           -0.8966    -0.3679     0.0900 H       
  24 H24           -2.3273    -0.6723    -0.9243 H       
  25 H25           -0.9390    -0.4080    -2.9618 H       
  26 H26            0.4917    -0.1036    -1.9475 H       
  27 H27            0.2425    -2.3477    -0.9226 H       
  28 H28           -1.1882    -2.6521    -1.9369 H       
  29 H29            0.2000    -2.3878    -3.9744 H       
  30 H30            1.6307    -2.0834    -2.9601 H       
  31 H31            1.3815    -4.3275    -1.9352 H       
  32 H32           -0.0492    -4.6319    -2.9494 H       
  33 H33            4.2032    -7.3985    -6.9398 H       
  34 H34            5.8750    -5.5838    -7.9853 H       
  35 H35            4.5966    -6.1699    -9.0750 H       
  36 H36            4.8626    -3.6304    -8.9787 H       
  37 H37            3.2203    -4.2320    -8.6305 H       
  38 H38            2.3088    -3.9252    -6.3890 H       
  39 H39            3.4621    -3.8135    -5.0416 H       
  40 H40            3.1275    -1.9276    -7.5585 H       
  41 H41            4.0462    -1.6792    -6.0543 H       
  42 H42            4.8861    -1.6602    -7.6235 H       
@<TRIPOS>BOND
   1    1    2 1
   2    1   20 1
   3    1   21 1
   4    1   22 1
   5    2    3 1
   6    2   23 1
   7    2   24 1
   8    3    4 1
   9    3   25 1
  10    3   26 1
  11    4    5 1
  12    4   27 1
  13    4   28 1
  14    5    6 1
  15    5   29 1
  16    5   30 1
  17    6    7 1
  18    6   31 1
  19    6   32 1
  20    7    8 1
  21    8    9 2
  22    8   12 1
  23    9   10 1
  24   10   11 1
  25   11   12 2
  26   12   13 1
  27   13   14 2
  28   13   18 1
  29   14   15 1
  30   14   33 1
  31   15   16 1
  32   15   34 1
  33   15   35 1
  34   16   17 1
  35   16   36 1
  36   16   37 1
  37   17   18 1
  38   17   19 1
  39   18   38 1
  40   18   39 1
  41   19   40 1
  42   19   41 1
  43   19   42 1

#	End of record

