#	Name: ASD01148653
#	Creating user name:	WinNT
#	Creation time:	15. 06. 2019 19:02

#	Modifying user name:	WinNT
#	Modification time:	15. 06. 2019 19:02

#	Program:	/corina/corina34_cracker 3.40 0067  02.08.2006

@<TRIPOS>MOLECULE
ASD01148653
  29   30    0    0    0
SMALL
NO_CHARGES


@<TRIPOS>ATOM
   1 C1            -0.0167     1.3793     0.0096 C.ar    
   2 C2             0.0021    -0.0041     0.0020 C.ar    
   3 N3             1.1455    -0.6630    -0.0120 N.ar    
   4 C4             2.3062    -0.0370    -0.0197 C.ar    
   5 C5             2.3651     1.3436    -0.0133 C.ar    
   6 C6             1.1845     2.0709     0.0019 C.ar    
   7 C7             3.6961     2.0503    -0.0217 C.3     
   8 C8             4.1336     2.2967    -1.4670 C.3     
   9 C9             5.4550     3.0999    -1.5091 C.3     
  10 C10            6.2941     2.6577    -2.7196 C.3     
  11 C11            6.3272     1.1034    -2.7373 C.3     
  12 S12            4.5843     0.7155    -2.2880 S.o2    
  13 O13            4.4129    -0.4476    -1.4898 O.2     
  14 N14            3.7780     0.5632    -3.5360 N.am    
  15 Cl15          -1.4950    -0.8829     0.0116 Cl      
  16 C16            2.4388     0.3726    -3.4583 C.1     
  17 N17            1.3159     0.2129    -3.3931 N.1     
  18 H18           -0.9553     1.9135     0.0170 H       
  19 H19            3.2215    -0.6101    -0.0308 H       
  20 H20            1.2006     3.1508     0.0072 H       
  21 H21            3.6044     3.0041     0.4978 H       
  22 H22            4.4389     1.4320     0.4824 H       
  23 H23            3.3508     2.8131    -2.0225 H       
  24 H24            5.2303     4.1632    -1.5928 H       
  25 H25            6.0177     2.9203    -0.5930 H       
  26 H26            5.8390     3.0272    -3.6385 H       
  27 H27            7.3080     3.0471    -2.6275 H       
  28 H28            6.5705     0.7265    -3.7307 H       
  29 H29            7.0211     0.7163    -1.9911 H       
@<TRIPOS>BOND
   1    1    2 ar
   2    1    6 ar
   3    1   18 1
   4    2    3 ar
   5    2   15 1
   6    3    4 ar
   7    4    5 ar
   8    4   19 1
   9    5    6 ar
  10    5    7 1
  11    6   20 1
  12    7    8 1
  13    7   21 1
  14    7   22 1
  15    8    9 1
  16    8   12 1
  17    8   23 1
  18    9   10 1
  19    9   24 1
  20    9   25 1
  21   10   11 1
  22   10   26 1
  23   10   27 1
  24   11   12 1
  25   11   28 1
  26   11   29 1
  27   12   13 2
  28   12   14 2
  29   14   16 1
  30   16   17 3

#	End of record

