#	Name: ASD00960205
#	Creating user name:	WinNT
#	Creation time:	15. 06. 2019 18:53

#	Modifying user name:	WinNT
#	Modification time:	15. 06. 2019 18:53

#	Program:	/corina/corina34_cracker 3.40 0067  02.08.2006

@<TRIPOS>MOLECULE
ASD00960205
  36   38    0    0    0
SMALL
NO_CHARGES


@<TRIPOS>ATOM
   1 C1            -0.0170     1.4014     0.0097 C.2     
   2 C2             0.0021    -0.0041     0.0020 C.2     
   3 N3             1.2700     1.8423    -0.0002 N.pl3   
   4 C4             2.1106     0.7578    -0.0140 C.2     
   5 C5             1.3425    -0.3965    -0.0129 C.2     
   6 N6             1.8349     3.1261     0.0009 N.2     
   7 C7             3.1344     3.2703    -0.0111 C.2     
   8 N8             3.9609     2.2300    -0.0250 N.2     
   9 C9             3.5094     0.9875    -0.0254 C.2     
  10 N10            4.3898    -0.0740    -0.0396 N.pl3   
  11 C11           -1.1736    -0.8974     0.0089 C.2     
  12 N12           -1.0040    -2.2344     0.0000 N.am    
  13 O13           -2.2945    -0.4269     0.0225 O.2     
  14 C14           -1.2126     2.2434     0.0202 C.2     
  15 O15           -2.3166     1.7323     0.0233 O.2     
  16 O16           -1.0913     3.5874     0.0264 O.3     
  17 C17           -2.3011     4.3479     0.0365 C.3     
  18 C18           -1.9702     5.8181     0.0423 C.ar    
  19 C19           -1.8246     6.4985    -1.1522 C.ar    
  20 C20           -1.5210     7.8470    -1.1469 C.ar    
  21 C21           -1.3634     8.5154     0.0528 C.ar    
  22 C22           -1.5099     7.8352     1.2473 C.ar    
  23 C23           -1.8178     6.4875     1.2421 C.ar    
  24 H24            1.7122    -1.4112    -0.0215 H       
  25 H25            3.5495     4.2674    -0.0100 H       
  26 H26            5.3460     0.0891    -0.0493 H       
  27 H27            4.0529    -0.9836    -0.0398 H       
  28 H28           -0.1097    -2.6099    -0.0109 H       
  29 H29           -1.7763    -2.8213     0.0045 H       
  30 H30           -2.8868     4.1108    -0.8517 H       
  31 H31           -2.8776     4.1017     0.9282 H       
  32 H32           -1.9477     5.9763    -2.0896 H       
  33 H33           -1.4065     8.3785    -2.0801 H       
  34 H34           -1.1255     9.5688     0.0570 H       
  35 H35           -1.3865     8.3572     2.1847 H       
  36 H36           -1.9359     5.9570     2.1753 H       
@<TRIPOS>BOND
   1    1    2 2
   2    1    3 1
   3    1   14 1
   4    2   11 1
   5    2    5 1
   6    3    4 1
   7    3    6 1
   8    4    5 2
   9    4    9 1
  10    5   24 1
  11    6    7 2
  12    7    8 1
  13    7   25 1
  14    8    9 2
  15    9   10 1
  16   10   26 1
  17   10   27 1
  18   11   12 am
  19   11   13 2
  20   12   28 1
  21   12   29 1
  22   14   15 2
  23   14   16 1
  24   16   17 1
  25   17   18 1
  26   17   30 1
  27   17   31 1
  28   18   19 ar
  29   18   23 ar
  30   19   20 ar
  31   19   32 1
  32   20   21 ar
  33   20   33 1
  34   21   22 ar
  35   21   34 1
  36   22   23 ar
  37   22   35 1
  38   23   36 1

#	End of record

