#	Name: ASD01420097
#	Creating user name:	WinNT
#	Creation time:	15. 06. 2019 19:20

#	Modifying user name:	WinNT
#	Modification time:	15. 06. 2019 19:20

#	Program:	/corina/corina34_cracker 3.40 0067  02.08.2006

@<TRIPOS>MOLECULE
ASD01420097
  45   47    0    0    0
SMALL
NO_CHARGES


@<TRIPOS>ATOM
   1 C1            -0.0144     1.2120     0.0087 C.2     
   2 O2             0.1295     0.0132     0.1550 O.2     
   3 C3             1.0482     3.4383    -0.4762 C.3     
   4 N4             1.0607     2.0008    -0.1871 N.am    
   5 C5             2.4666     1.5859    -0.1513 C.3     
   6 C6             3.3115     2.8044    -0.4254 C.ar    
   7 C7             4.6838     2.9617    -0.5044 C.ar    
   8 C8             5.2254     4.2090    -0.7748 C.ar    
   9 C9             4.3880     5.2987    -0.9658 C.ar    
  10 C10            3.0193     5.1372    -0.8861 C.ar    
  11 C11            2.4800     3.8905    -0.6160 C.ar    
  12 O12            6.5733     4.3641    -0.8520 O.3     
  13 C13            7.0601     5.6777    -1.1339 C.3     
  14 C14           -1.3642     1.8009     0.0395 C.ar    
  15 C15           -2.2646     1.4465     1.0559 C.ar    
  16 C16           -3.5307     2.0049     1.0776 C.ar    
  17 C17           -3.9067     2.9113     0.0969 C.ar    
  18 C18           -3.0151     3.2637    -0.9115 C.ar    
  19 C19           -1.7517     2.7198    -0.9406 C.ar    
  20 C20           -3.4329     4.2491    -1.9723 C.3     
  21 C21           -2.5005     5.4617    -1.9376 C.3     
  22 C22           -3.3523     3.5830    -3.3473 C.3     
  23 O23           -5.1495     3.4561     0.1210 O.3     
  24 O24           -1.8953     0.5593     2.0135 O.3     
  25 H25            0.5099     3.6235    -1.4058 H       
  26 H26            0.5693     3.9756     0.3423 H       
  27 H27            2.7078     1.1827     0.8323 H       
  28 H28            2.6484     0.8306    -0.9158 H       
  29 H29            5.3338     2.1122    -0.3550 H       
  30 H30            4.8063     6.2719    -1.1762 H       
  31 H31            2.3674     5.9853    -1.0348 H       
  32 H32            8.1495     5.6620    -1.1678 H       
  33 H33            6.6714     6.0105    -2.0963 H       
  34 H34            6.7308     6.3627    -0.3525 H       
  35 H35           -4.2265     1.7347     1.8582 H       
  36 H36           -1.0610     2.9993    -1.7224 H       
  37 H37           -4.4568     4.5726    -1.7848 H       
  38 H38           -1.4766     5.1382    -2.1252 H       
  39 H39           -2.8026     6.1744    -2.7049 H       
  40 H40           -2.5579     5.9362    -0.9581 H       
  41 H41           -4.0166     2.7191    -3.3721 H       
  42 H42           -3.6545     4.2957    -4.1146 H       
  43 H43           -2.3285     3.2595    -3.5349 H       
  44 H44           -5.2087     4.2783     0.6266 H       
  45 H45           -1.4866     0.9660     2.7898 H       
@<TRIPOS>BOND
   1    1    2 2
   2    1    4 am
   3    1   14 1
   4    3    4 1
   5    3   11 1
   6    3   25 1
   7    3   26 1
   8    4    5 1
   9    5    6 1
  10    5   27 1
  11    5   28 1
  12    6    7 ar
  13    6   11 ar
  14    7    8 ar
  15    7   29 1
  16    8    9 ar
  17    8   12 1
  18    9   10 ar
  19    9   30 1
  20   10   11 ar
  21   10   31 1
  22   12   13 1
  23   13   32 1
  24   13   33 1
  25   13   34 1
  26   14   15 ar
  27   14   19 ar
  28   15   16 ar
  29   15   24 1
  30   16   17 ar
  31   16   35 1
  32   17   18 ar
  33   17   23 1
  34   18   19 ar
  35   18   20 1
  36   19   36 1
  37   20   21 1
  38   20   22 1
  39   20   37 1
  40   21   38 1
  41   21   39 1
  42   21   40 1
  43   22   41 1
  44   22   42 1
  45   22   43 1
  46   23   44 1
  47   24   45 1

#	End of record

