#	Name: ASD01884700
#	Creating user name:	WinNT
#	Creation time:	15. 06. 2019 19:48

#	Modifying user name:	WinNT
#	Modification time:	15. 06. 2019 19:48

#	Program:	/corina/corina34_cracker 3.40 0067  02.08.2006

@<TRIPOS>MOLECULE
ASD01884700
  41   42    0    0    0
SMALL
NO_CHARGES


@<TRIPOS>ATOM
   1 C1            -0.0168     1.3859     0.0097 C.2     
   2 C2             0.0021    -0.0041     0.0020 C.2     
   3 C3            -1.2211    -0.6983     0.0099 C.2     
   4 C4            -2.4065     0.0051     0.0250 C.2     
   5 N5            -2.4138     1.3529     0.0318 N.am    
   6 C6            -1.2674     2.0575     0.0311 C.2     
   7 O7            -1.3028     3.2758     0.0385 O.2     
   8 C8            -3.6943     2.0644     0.0469 C.3     
   9 C9             1.2072     2.1292     0.0020 C.1     
  10 N10            2.1781     2.7189    -0.0041 N.1     
  11 C11           -4.1272     2.3048     1.4945 C.3     
  12 C12           -5.4645     3.0479     1.5102 C.3     
  13 C13           -5.9586     3.1784     2.9524 C.3     
  14 C14           -5.2808     4.4414     0.9059 C.3     
  15 C15           -1.2354    -2.1815     0.0016 C.ar    
  16 C16           -0.0315    -2.8829    -0.0141 C.ar    
  17 C17           -0.0578    -4.2658    -0.0212 C.ar    
  18 C18           -1.2940    -4.9061    -0.0125 C.ar    
  19 C19           -2.4530    -4.1432     0.0031 C.ar    
  20 N20           -2.3944    -2.8271     0.0147 N.ar    
  21 O21           -1.3649    -6.2634    -0.0195 O.3     
  22 C22           -2.6702    -6.8450    -0.0097 C.3     
  23 H23            0.9390    -0.5411    -0.0101 H       
  24 H24           -3.3436    -0.5319     0.0310 H       
  25 H25           -3.5842     3.0214    -0.4632 H       
  26 H26           -4.4487     1.4655    -0.4633 H       
  27 H27           -4.2373     1.3478     2.0045 H       
  28 H28           -3.3728     2.9037     2.0047 H       
  29 H29           -6.1963     2.4915     0.9245 H       
  30 H30           -5.2268     3.7349     3.5381 H       
  31 H31           -6.9113     3.7078     2.9636 H       
  32 H32           -6.0894     2.1856     3.3829 H       
  33 H33           -4.9289     4.3484    -0.1215 H       
  34 H34           -6.2336     4.9708     0.9171 H       
  35 H35           -4.5491     4.9979     1.4917 H       
  36 H36            0.9099    -2.3536    -0.0209 H       
  37 H37            0.8595    -4.8357    -0.0337 H       
  38 H38           -3.4148    -4.6343     0.0100 H       
  39 H39           -3.2022    -6.5286     0.8875 H       
  40 H40           -3.2201    -6.5184    -0.8923 H       
  41 H41           -2.5839    -7.9315    -0.0167 H       
@<TRIPOS>BOND
   1    1    2 2
   2    1    9 1
   3    1    6 1
   4    2    3 1
   5    2   23 1
   6    3    4 2
   7    3   15 1
   8    4    5 1
   9    4   24 1
  10    5    8 1
  11    5    6 am
  12    6    7 2
  13    8   11 1
  14    8   25 1
  15    8   26 1
  16    9   10 3
  17   11   12 1
  18   11   27 1
  19   11   28 1
  20   12   13 1
  21   12   14 1
  22   12   29 1
  23   13   30 1
  24   13   31 1
  25   13   32 1
  26   14   33 1
  27   14   34 1
  28   14   35 1
  29   15   16 ar
  30   15   20 ar
  31   16   17 ar
  32   16   36 1
  33   17   18 ar
  34   17   37 1
  35   18   19 ar
  36   18   21 1
  37   19   20 ar
  38   19   38 1
  39   21   22 1
  40   22   39 1
  41   22   40 1
  42   22   41 1

#	End of record

