#	Name: ASD01410075
#	Creating user name:	WinNT
#	Creation time:	15. 06. 2019 19:16

#	Modifying user name:	WinNT
#	Modification time:	15. 06. 2019 19:16

#	Program:	/corina/corina34_cracker 3.40 0067  02.08.2006

@<TRIPOS>MOLECULE
ASD01410075
  67   71    0    0    0
SMALL
NO_CHARGES


@<TRIPOS>ATOM
   1 C1            -0.0169     1.3986     0.0097 C.ar    
   2 C2             0.0021    -0.0041     0.0020 C.ar    
   3 C3            -1.1621    -0.7093     0.0098 C.ar    
   4 C4            -2.3912    -0.0347     0.0256 C.ar    
   5 C5            -2.4204     1.3752     0.0335 C.ar    
   6 C6            -1.2306     2.0850     0.0308 C.ar    
   7 C7            -3.7374    -0.4721     0.0371 C.2     
   8 C8            -4.5318     0.6284     0.0511 C.2     
   9 N9            -3.7466     1.7567     0.0491 N.pl3   
  10 C10           -6.0102     0.6156     0.0653 C.ar    
  11 C11           -6.7099     1.4581     0.9306 C.ar    
  12 C12           -8.0891     1.4421     0.9389 C.ar    
  13 C13           -8.7795     0.5923     0.0911 C.ar    
  14 C14           -8.0908    -0.2458    -0.7696 C.ar    
  15 C15           -6.7117    -0.2349    -0.7907 C.ar    
  16 C16           -4.2053    -1.9046     0.0342 C.3     
  17 C17           -3.6904    -2.6068    -1.2239 C.3     
  18 C18           -4.1655    -4.0612    -1.2268 C.3     
  19 C19           -3.6260    -4.7764     0.0134 C.3     
  20 C20           -4.1409    -4.0743     1.2715 C.3     
  21 C21           -3.6658    -2.6199     1.2744 C.3     
  22 C22            1.2512     2.1499     0.0017 C.2     
  23 O23            2.4257     1.4892    -0.0131 O.3     
  24 C24           -4.2369     3.1372     0.0616 C.3     
  25 C25           -4.3905     3.6029     1.4866 C.2     
  26 N26           -4.8315     4.8502     1.7441 N.am    
  27 O27            1.2376     3.3650     0.0083 O.2     
  28 O28           -4.1172     2.8553     2.4016 O.2     
  29 C29           -4.9885     5.3248     3.1273 C.3     
  30 C30           -4.2628     6.6672     3.2667 C.3     
  31 N31           -4.7481     7.5921     2.2337 N.3     
  32 C32           -4.4356     7.0976     0.8863 C.3     
  33 C33           -5.1626     5.7748     0.6493 C.3     
  34 C34           -4.2050     8.9417     2.4383 C.3     
  35 Cl35         -10.5154     0.5773     0.1076 Cl      
  36 H36            0.9465    -0.5278    -0.0105 H       
  37 H37           -1.1391    -1.7891     0.0034 H       
  38 H38           -1.2431     3.1650     0.0368 H       
  39 H39           -6.1724     2.1210     1.5925 H       
  40 H40           -8.6316     2.0933     1.6083 H       
  41 H41           -8.6346    -0.9064    -1.4286 H       
  42 H42           -6.1756    -0.8890    -1.4624 H       
  43 H43           -5.2950    -1.9310     0.0448 H       
  44 H44           -4.0748    -2.0973    -2.1075 H       
  45 H45           -2.6008    -2.5805    -1.2345 H       
  46 H46           -5.2551    -4.0875    -1.2163 H       
  47 H47           -3.7987    -4.5614    -2.1231 H       
  48 H48           -3.9644    -5.8126     0.0113 H       
  49 H49           -2.5363    -4.7501     0.0028 H       
  50 H50           -5.2305    -4.1006     1.2821 H       
  51 H51           -3.7565    -4.5838     2.1551 H       
  52 H52           -2.5762    -2.5936     1.2638 H       
  53 H53           -4.0326    -2.1197     2.1707 H       
  54 H54            3.2307     2.0250    -0.0179 H       
  55 H55           -3.5252     3.7803    -0.4561 H       
  56 H56           -5.2024     3.1844    -0.4421 H       
  57 H57           -6.0471     5.4558     3.3515 H       
  58 H58           -4.5528     4.5999     3.8148 H       
  59 H59           -4.4608     7.0871     4.2529 H       
  60 H60           -3.1904     6.5154     3.1442 H       
  61 H61           -4.7590     7.8295     0.1461 H       
  62 H62           -3.3608     6.9398     0.7969 H       
  63 H63           -4.8447     5.3476    -0.3018 H       
  64 H64           -6.2390     5.9460     0.6355 H       
  65 H65           -3.1166     8.9061     2.3921 H       
  66 H66           -4.5802     9.6061     1.6599 H       
  67 H67           -4.5153     9.3141     3.4146 H       
@<TRIPOS>BOND
   1    1    2 ar
   2    1   22 1
   3    1    6 ar
   4    2    3 ar
   5    2   36 1
   6    3    4 ar
   7    3   37 1
   8    4    5 ar
   9    4    7 1
  10    5    6 ar
  11    5    9 1
  12    6   38 1
  13    7    8 2
  14    7   16 1
  15    8    9 1
  16    8   10 1
  17    9   24 1
  18   10   11 ar
  19   10   15 ar
  20   11   12 ar
  21   11   39 1
  22   12   13 ar
  23   12   40 1
  24   13   14 ar
  25   13   35 1
  26   14   15 ar
  27   14   41 1
  28   15   42 1
  29   16   17 1
  30   16   21 1
  31   16   43 1
  32   17   18 1
  33   17   44 1
  34   17   45 1
  35   18   19 1
  36   18   46 1
  37   18   47 1
  38   19   20 1
  39   19   48 1
  40   19   49 1
  41   20   21 1
  42   20   50 1
  43   20   51 1
  44   21   52 1
  45   21   53 1
  46   22   23 1
  47   22   27 2
  48   23   54 1
  49   24   25 1
  50   24   55 1
  51   24   56 1
  52   25   26 am
  53   25   28 2
  54   26   29 1
  55   26   33 1
  56   29   30 1
  57   29   57 1
  58   29   58 1
  59   30   31 1
  60   30   59 1
  61   30   60 1
  62   31   32 1
  63   31   34 1
  64   32   33 1
  65   32   61 1
  66   32   62 1
  67   33   63 1
  68   33   64 1
  69   34   65 1
  70   34   66 1
  71   34   67 1

#	End of record

