#	Name: ASD01918310
#	Creating user name:	WinNT
#	Creation time:	15. 06. 2019 20:11

#	Modifying user name:	WinNT
#	Modification time:	15. 06. 2019 20:11

#	Program:	/corina/corina34_cracker 3.40 0067  02.08.2006

@<TRIPOS>MOLECULE
ASD01918310
  45   48    0    0    0
SMALL
NO_CHARGES


@<TRIPOS>ATOM
   1 C1            -0.0187     1.5258     0.0104 C.3     
   2 C2             0.0021    -0.0041     0.0020 C.3     
   3 N3            -1.3600    -0.5401     0.1476 N.am    
   4 C4            -1.4220    -1.2673     1.2714 C.2     
   5 O5            -2.4329    -1.8308     1.6416 O.2     
   6 O6            -0.2691    -1.3168     1.9481 O.3     
   7 C7             0.7426    -0.5422     1.2416 C.3     
   8 H8             1.5735    -1.1812     0.9427 H       
   9 C9             1.2317     0.5957     2.1000 C.ar    
  10 C10            0.3903     1.1661     3.0367 C.ar    
  11 C11            0.8389     2.2099     3.8242 C.ar    
  12 C12            2.1293     2.6830     3.6753 C.ar    
  13 C13            2.9711     2.1119     2.7392 C.ar    
  14 C14            2.5237     1.0653     1.9547 C.ar    
  15 C15            0.6436    -0.5163    -1.2617 C.ar    
  16 C16            2.0043    -0.7615    -1.3047 C.ar    
  17 N17            2.5820    -1.2106    -2.4027 N.ar    
  18 C18            1.8976    -1.4455    -3.5026 C.ar    
  19 C19            0.5186    -1.2230    -3.5419 C.ar    
  20 C20           -0.1233    -0.7517    -2.3890 C.ar    
  21 C21           -0.2266    -1.4778    -4.7379 C.1     
  22 C22           -0.8375    -1.6867    -5.7185 C.1     
  23 C23           -1.5826    -1.9415    -6.9145 C.ar    
  24 C24           -0.9355    -2.4224    -8.0558 C.ar    
  25 C25           -1.6598    -2.6659    -9.2039 C.ar    
  26 C26           -3.0241    -2.4353    -9.2274 C.ar    
  27 C27           -3.6716    -1.9587    -8.1012 C.ar    
  28 C28           -2.9614    -1.7160    -6.9441 C.ar    
  29 H29            1.0039     1.9031     0.0027 H       
  30 H30           -0.5459     1.8868    -0.8726 H       
  31 H31           -0.5289     1.8773     0.9072 H       
  32 H32           -2.0937    -0.3912    -0.4692 H       
  33 H33           -0.6178     0.7966     3.1531 H       
  34 H34            0.1813     2.6560     4.5555 H       
  35 H35            2.4796     3.4989     4.2900 H       
  36 H36            3.9790     2.4818     2.6226 H       
  37 H37            3.1826     0.6167     1.2260 H       
  38 H38            2.6041    -0.5820    -0.4247 H       
  39 H39            2.4062    -1.8128    -4.3817 H       
  40 H40           -1.1884    -0.5730    -2.3817 H       
  41 H41            0.1292    -2.6025    -8.0390 H       
  42 H42           -1.1610    -3.0373   -10.0869 H       
  43 H43           -3.5861    -2.6278   -10.1293 H       
  44 H44           -4.7365    -1.7806    -8.1270 H       
  45 H45           -3.4689    -1.3486    -6.0644 H       
@<TRIPOS>BOND
   1    1    2 1
   2    1   29 1
   3    1   30 1
   4    1   31 1
   5    2    7 1
   6    2    3 1
   7    2   15 1
   8    3    4 am
   9    3   32 1
  10    4    5 2
  11    4    6 1
  12    6    7 1
  13    7    8 1
  14    7    9 1
  15    9   14 ar
  16    9   10 ar
  17   10   11 ar
  18   10   33 1
  19   11   12 ar
  20   11   34 1
  21   12   13 ar
  22   12   35 1
  23   13   14 ar
  24   13   36 1
  25   14   37 1
  26   15   20 ar
  27   15   16 ar
  28   16   17 ar
  29   16   38 1
  30   17   18 ar
  31   18   19 ar
  32   18   39 1
  33   19   20 ar
  34   19   21 1
  35   20   40 1
  36   21   22 3
  37   22   23 1
  38   23   28 ar
  39   23   24 ar
  40   24   25 ar
  41   24   41 1
  42   25   26 ar
  43   25   42 1
  44   26   27 ar
  45   26   43 1
  46   27   28 ar
  47   27   44 1
  48   28   45 1

#	End of record

