#	Name: ASD01411293
#	Creating user name:	WinNT
#	Creation time:	15. 06. 2019 19:19

#	Modifying user name:	WinNT
#	Modification time:	15. 06. 2019 19:19

#	Program:	/corina/corina34_cracker 3.40 0067  02.08.2006

@<TRIPOS>MOLECULE
ASD01411293
 110  116    0    0    0
SMALL
NO_CHARGES


@<TRIPOS>ATOM
   1 C1             0.1448     0.0536     0.2564 C.ar    
   2 C2             0.3179    -1.3451     0.2424 C.ar    
   3 C3            -0.8057    -2.1851     0.2575 C.ar    
   4 C4            -2.0619    -1.6515     0.2881 C.ar    
   5 C5            -2.2386    -0.2654     0.3096 C.ar    
   6 C6            -1.1307     0.5867     0.2940 C.ar    
   7 N7             1.4015     0.6349     0.2211 N.pl3   
   8 C8             2.3418    -0.3664     0.2021 C.2     
   9 C9             1.7139    -1.5745     0.2135 C.2     
  10 C10            1.6511     2.0783     0.2064 C.3     
  11 C11            0.7873     2.7490    -0.8323 C.2     
  12 N12            0.4259     4.0584    -0.6487 N.am    
  13 O13            0.4230     2.1371    -1.8140 O.2     
  14 C14           -0.4328     4.6214    -1.7223 C.3     
  15 C15           -1.4866     5.5286    -1.0859 C.3     
  16 C16           -2.8880     5.0165    -1.4332 C.3     
  17 C17           -3.5831     0.3517     0.3238 C.2     
  18 O18           -4.5841    -0.2872     0.0664 O.2     
  19 N19           -3.6361     1.6706     0.6778 N.am    
  20 C20           -3.1686     3.7469    -0.6297 C.3     
  21 C21           -4.6724     3.4642    -0.5759 C.3     
  22 C22           -4.9192     2.3829     0.4903 C.3     
  23 C23            3.8086    -0.1827     0.1748 C.ar    
  24 C24            4.3808     0.7534    -0.6886 C.ar    
  25 C25            2.3930    -2.9194     0.1981 C.3     
  26 C26            2.0049    -3.7012     1.4547 C.3     
  27 C27            2.6945    -5.0669     1.4390 C.3     
  28 C28            2.2551    -5.8459     0.1976 C.3     
  29 C29            2.6433    -5.0640    -1.0590 C.3     
  30 C30            1.9537    -3.6984    -1.0433 C.3     
  31 C31            5.7486     0.9219    -0.7108 C.ar    
  32 C32            6.5574     0.1618     0.1240 C.ar    
  33 C33            5.9920    -0.7704     0.9843 C.ar    
  34 C34            4.6247    -0.9409     1.0165 C.ar    
  35 O35            7.9052     0.3303     0.0986 O.3     
  36 C36            8.6775    -0.4841     0.9831 C.3     
  37 C37           10.1398    -0.1601     0.8162 C.ar    
  38 C38           11.0818    -0.7543     1.6456 C.ar    
  39 C39           12.4296    -0.4554     1.4916 C.ar    
  40 C40           12.8323     0.4321     0.5140 C.ar    
  41 C41           11.8901     1.0262    -0.3154 C.ar    
  42 C42           10.5435     0.7233    -0.1653 C.ar    
  43 N43           10.6734    -1.6533     2.6365 N.3     
  44 C44           10.9556    -1.1231     3.9771 C.3     
  45 C45           10.3341    -2.0474     5.0296 C.3     
  46 N46           10.8125    -3.4173     4.7893 N.am    
  47 C47           10.6886    -3.9695     3.4317 C.3     
  48 C48           11.2961    -2.9695     2.4421 C.3     
  49 S49           11.4735    -4.3139     6.0146 S.o2    
  50 C50           10.0626    -5.1851     6.7500 C.3     
  51 O51           12.3353    -5.2299     5.3530 O.2     
  52 O52           11.9883    -3.3461     6.9187 O.2     
  53 N53           12.2991     1.9277    -1.3075 N.am    
  54 C54           13.4845     1.7571    -1.9258 C.2     
  55 O55           14.1543     0.7731    -1.6922 O.2     
  56 C56           13.9778     2.7888    -2.9072 C.3     
  57 H57           -0.6796    -3.2574     0.2452 H       
  58 H58           -2.9218    -2.3046     0.2969 H       
  59 H59           -1.2648     1.6580     0.3069 H       
  60 H60            1.4131     2.4927     1.1880 H       
  61 H61            2.6966     2.2772    -0.0214 H       
  62 H62            0.7120     4.5775     0.1212 H       
  63 H63            0.1793     5.2047    -2.4113 H       
  64 H64           -0.9257     3.8162    -2.2657 H       
  65 H65           -1.3593     5.5285    -0.0031 H       
  66 H66           -1.3680     6.5444    -1.4641 H       
  67 H67           -3.6263     5.7776    -1.1801 H       
  68 H68           -2.9428     4.7951    -2.4986 H       
  69 H69           -2.8639     2.1193     1.0608 H       
  70 H70           -2.6590     2.9057    -1.1013 H       
  71 H71           -2.7884     3.8786     0.3837 H       
  72 H72           -5.2099     4.3740    -0.3072 H       
  73 H73           -5.0157     3.1071    -1.5467 H       
  74 H74           -5.6892     1.6926     0.1487 H       
  75 H75           -5.2273     2.8486     1.4272 H       
  76 H76            3.7526     1.3444    -1.3386 H       
  77 H77            3.4739    -2.7804     0.1761 H       
  78 H78            2.3179    -3.1463     2.3390 H       
  79 H79            0.9240    -3.8403     1.4766 H       
  80 H80            3.7754    -4.9279     1.4170 H       
  81 H81            2.4180    -5.6239     2.3342 H       
  82 H82            2.7465    -6.8188     0.1864 H       
  83 H83            1.1743    -5.9849     0.2195 H       
  84 H84            3.7242    -4.9250    -1.0810 H       
  85 H85            2.3303    -5.6190    -1.9434 H       
  86 H86            0.8728    -3.8374    -1.0213 H       
  87 H87            2.2302    -3.1414    -1.9385 H       
  88 H88            6.1920     1.6459    -1.3784 H       
  89 H89            6.6243    -1.3596     1.6319 H       
  90 H90            4.1857    -1.6658     1.6860 H       
  91 H91            8.3772    -0.2884     2.0125 H       
  92 H92            8.5093    -1.5353     0.7491 H       
  93 H93           13.1623    -0.9171     2.1368 H       
  94 H94           13.8801     0.6648     0.3944 H       
  95 H95            9.8110     1.1851    -0.8107 H       
  96 H96           12.0338    -1.0724     4.1287 H       
  97 H97           10.5274    -0.1251     4.0711 H       
  98 H98           10.6362    -1.7235     6.0255 H       
  99 H99            9.2477    -2.0190     4.9461 H       
 100 H100          11.2251    -4.9164     3.3712 H       
 101 H101           9.6363    -4.1259     3.1947 H       
 102 H102          11.1149    -3.3107     1.4229 H       
 103 H103          12.3696    -2.8931     2.6151 H       
 104 H104           9.5900    -5.8135     5.9951 H       
 105 H105          10.4096    -5.8070     7.5752 H       
 106 H106           9.3404    -4.4582     7.1217 H       
 107 H107          11.7291     2.6743    -1.5493 H       
 108 H108          14.5672     3.5390    -2.3802 H       
 109 H109          14.5972     2.3049    -3.6625 H       
 110 H110          13.1259     3.2686    -3.3890 H       
@<TRIPOS>BOND
   1    1    2 ar
   2    1    7 1
   3    1    6 ar
   4    2    3 ar
   5    2    9 1
   6    3    4 ar
   7    3   57 1
   8    4    5 ar
   9    4   58 1
  10    5    6 ar
  11    5   17 1
  12    6   59 1
  13    7    8 1
  14    7   10 1
  15    8    9 2
  16    8   23 1
  17    9   25 1
  18   10   11 1
  19   10   60 1
  20   10   61 1
  21   11   12 am
  22   11   13 2
  23   12   14 1
  24   12   62 1
  25   14   15 1
  26   14   63 1
  27   14   64 1
  28   15   16 1
  29   15   65 1
  30   15   66 1
  31   16   20 1
  32   16   67 1
  33   16   68 1
  34   17   18 2
  35   17   19 am
  36   19   22 1
  37   19   69 1
  38   20   21 1
  39   20   70 1
  40   20   71 1
  41   21   22 1
  42   21   72 1
  43   21   73 1
  44   22   74 1
  45   22   75 1
  46   23   24 ar
  47   23   34 ar
  48   24   31 ar
  49   24   76 1
  50   25   26 1
  51   25   30 1
  52   25   77 1
  53   26   27 1
  54   26   78 1
  55   26   79 1
  56   27   28 1
  57   27   80 1
  58   27   81 1
  59   28   29 1
  60   28   82 1
  61   28   83 1
  62   29   30 1
  63   29   84 1
  64   29   85 1
  65   30   86 1
  66   30   87 1
  67   31   32 ar
  68   31   88 1
  69   32   33 ar
  70   32   35 1
  71   33   34 ar
  72   33   89 1
  73   34   90 1
  74   35   36 1
  75   36   37 1
  76   36   91 1
  77   36   92 1
  78   37   38 ar
  79   37   42 ar
  80   38   39 ar
  81   38   43 1
  82   39   40 ar
  83   39   93 1
  84   40   41 ar
  85   40   94 1
  86   41   42 ar
  87   41   53 1
  88   42   95 1
  89   43   44 1
  90   43   48 1
  91   44   45 1
  92   44   96 1
  93   44   97 1
  94   45   46 1
  95   45   98 1
  96   45   99 1
  97   46   47 1
  98   46   49 am
  99   47   48 1
 100   47  100 1
 101   47  101 1
 102   48  102 1
 103   48  103 1
 104   49   50 1
 105   49   51 2
 106   49   52 2
 107   50  104 1
 108   50  105 1
 109   50  106 1
 110   53   54 am
 111   53  107 1
 112   54   55 2
 113   54   56 1
 114   56  108 1
 115   56  109 1
 116   56  110 1

#	End of record

