#	Name: ASD05720056
#	Creating user name:	WinNT
#	Creation time:	15. 06. 2019 21:01

#	Modifying user name:	WinNT
#	Modification time:	15. 06. 2019 21:01

#	Program:	/corina/corina34_cracker 3.40 0067  02.08.2006

@<TRIPOS>MOLECULE
ASD05720056
  75   78    0    0    0
SMALL
NO_CHARGES


@<TRIPOS>ATOM
   1 C1             0.2553     1.3208    -1.5223 C.ar    
   2 C2             0.2245    -0.0266    -1.2095 C.ar    
   3 C3             1.3891    -0.7252    -0.9886 C.ar    
   4 C4             2.6360    -0.0880    -1.0757 C.ar    
   5 C5             2.6460     1.2701    -1.3925 C.ar    
   6 C6             1.4724     1.9690    -1.6135 C.ar    
   7 N7             3.8883    -0.6470    -0.8835 N.pl3   
   8 C8             4.9766     0.1619    -1.0190 C.2     
   9 S9             4.3438     1.7656    -1.4248 S.3     
  10 N10            6.2311    -0.1766    -0.8782 N.2     
  11 C11            7.2849     0.8247    -1.0603 C.3     
  12 C12            8.0919     0.9569     0.2328 C.3     
  13 C13            8.7248    -0.3923     0.5792 C.3     
  14 C14            9.6512    -0.8279    -0.5578 C.3     
  15 C15            8.8443    -0.9601    -1.8510 C.3     
  16 C16            8.2114     0.3891    -2.1973 C.3     
  17 O17            7.2265     1.3637     1.2948 O.3     
  18 C18           10.2841    -2.1772    -0.2115 C.3     
  19 C19           11.2178    -2.0094     0.9890 C.3     
  20 C20           11.7604    -3.3771     1.4081 C.3     
  21 C21           10.5957    -4.2921     1.7919 C.3     
  22 C22           11.1267    -5.6955     2.0909 C.3     
  23 C23           12.3825    -1.0944     0.6053 C.3     
  24 O24           12.6464    -3.2179     2.5474 O.3     
  25 C25           13.6484    -4.1029     2.6685 C.2     
  26 C26           14.6082    -4.0006     3.8258 C.3     
  27 N27           15.2827    -5.2909     4.0176 N.3     
  28 C28           16.1984    -5.2460     5.1646 C.3     
  29 C29           17.2869    -4.2009     4.9095 C.3     
  30 C30           16.6339    -2.8318     4.7000 C.3     
  31 C31           15.6492    -2.9183     3.5307 C.3     
  32 O32           13.7806    -4.9815     1.8497 O.2     
  33 H33           10.4352    -0.0829    -0.6933 H       
  34 C34            7.8712     2.1447     2.3030 C.3     
  35 C35            4.0385    -2.0643    -0.5445 C.3     
  36 H36           -0.6636     1.8603    -1.6981 H       
  37 H37           -0.7251    -0.5360    -1.1375 H       
  38 H38            1.3428    -1.7764    -0.7449 H       
  39 H39            1.5076     3.0205    -1.8574 H       
  40 H40            6.8340     1.7859    -1.3071 H       
  41 H41            8.8759     1.7019     0.0973 H       
  42 H42            9.2997    -0.2982     1.5004 H       
  43 H43            7.9407    -1.1373     0.7147 H       
  44 H44            9.5043    -1.2705    -2.6610 H       
  45 H45            8.0602    -1.7051    -1.7155 H       
  46 H46            7.6365     0.2949    -3.1186 H       
  47 H47            8.9954     1.1341    -2.3329 H       
  48 H48            9.5005    -2.8935     0.0351 H       
  49 H49           10.8536    -2.5415    -1.0665 H       
  50 H50           10.6666    -1.5672     1.8189 H       
  51 H51           12.3116    -3.8193     0.5782 H       
  52 H52           10.0985    -3.8955     2.6771 H       
  53 H53            9.8848    -4.3407     0.9670 H       
  54 H54           10.2969    -6.3473     2.3643 H       
  55 H55           11.6239    -6.0921     1.2057 H       
  56 H56           11.8375    -5.6468     2.9158 H       
  57 H57           12.0063    -0.0905     0.4086 H       
  58 H58           13.1016    -1.0591     1.4236 H       
  59 H59           12.8692    -1.4818    -0.2898 H       
  60 H60           14.0596    -3.7395     4.7307 H       
  61 H61           14.6120    -6.0378     4.1193 H       
  62 H62           15.6422    -4.9792     6.0632 H       
  63 H63           16.6591    -6.2245     5.3000 H       
  64 H64           17.9574    -4.1568     5.7678 H       
  65 H65           17.8525    -4.4744     4.0188 H       
  66 H66           16.1004    -2.5404     5.6048 H       
  67 H67           17.4025    -2.0923     4.4751 H       
  68 H68           16.1890    -3.1717     2.6183 H       
  69 H69           15.1496    -1.9578     3.4038 H       
  70 H70            8.6789     1.5653     2.7503 H       
  71 H71            8.2790     3.0510     1.8552 H       
  72 H72            7.1476     2.4135     3.0725 H       
  73 H73            4.1248    -2.6497    -1.4599 H       
  74 H74            4.9356    -2.2003     0.0596 H       
  75 H75            3.1670    -2.3975     0.0191 H       
@<TRIPOS>BOND
   1    1    2 ar
   2    1    6 ar
   3    1   36 1
   4    2    3 ar
   5    2   37 1
   6    3    4 ar
   7    3   38 1
   8    4    5 ar
   9    4    7 1
  10    5    6 ar
  11    5    9 1
  12    6   39 1
  13    7   35 1
  14    7    8 1
  15    8    9 1
  16    8   10 2
  17   10   11 1
  18   11   12 1
  19   11   16 1
  20   11   40 1
  21   12   13 1
  22   12   17 1
  23   12   41 1
  24   13   14 1
  25   13   42 1
  26   13   43 1
  27   14   15 1
  28   14   18 1
  29   14   33 1
  30   15   16 1
  31   15   44 1
  32   15   45 1
  33   16   46 1
  34   16   47 1
  35   17   34 1
  36   18   19 1
  37   18   48 1
  38   18   49 1
  39   19   23 1
  40   19   20 1
  41   19   50 1
  42   20   21 1
  43   20   24 1
  44   20   51 1
  45   21   22 1
  46   21   52 1
  47   21   53 1
  48   22   54 1
  49   22   55 1
  50   22   56 1
  51   23   57 1
  52   23   58 1
  53   23   59 1
  54   24   25 1
  55   25   26 1
  56   25   32 2
  57   26   27 1
  58   26   31 1
  59   26   60 1
  60   27   28 1
  61   27   61 1
  62   28   29 1
  63   28   62 1
  64   28   63 1
  65   29   30 1
  66   29   64 1
  67   29   65 1
  68   30   31 1
  69   30   66 1
  70   30   67 1
  71   31   68 1
  72   31   69 1
  73   34   70 1
  74   34   71 1
  75   34   72 1
  76   35   73 1
  77   35   74 1
  78   35   75 1

#	End of record

