#	Name: ASD04012011
#	Creating user name:	WinNT
#	Creation time:	15. 06. 2019 20:48

#	Modifying user name:	WinNT
#	Modification time:	15. 06. 2019 20:48

#	Program:	/corina/corina34_cracker 3.40 0067  02.08.2006

@<TRIPOS>MOLECULE
ASD04012011
  32   34    0    0    0
SMALL
NO_CHARGES


@<TRIPOS>ATOM
   1 N1            -0.0169     1.3947     0.0097 N.pl3   
   2 C2             1.2752     1.8378    -0.0002 C.2     
   3 N3             1.5506     3.1425     0.0037 N.2     
   4 C4             0.5847     4.0404     0.0174 C.2     
   5 C5            -0.7499     3.6342     0.0284 C.2     
   6 C6            -1.0425     2.2987     0.0193 C.2     
   7 N7             0.0021    -0.0041     0.0020 N.2     
   8 C8             1.2383    -0.4243    -0.0120 C.2     
   9 C9             2.0953     0.6930    -0.0142 C.2     
  10 O10           -2.3275     1.8779     0.0292 O.3     
  11 C11           -1.8571     4.6564     0.0444 C.3     
  12 C12           -2.1283     5.0810     1.4647 C.ar    
  13 Cl13           0.9751     5.7319     0.0223 Cl      
  14 C14           -1.4447     6.1525     2.0084 C.ar    
  15 C15           -1.6934     6.5418     3.3112 C.ar    
  16 C16           -2.6261     5.8600     4.0703 C.ar    
  17 C17           -3.3103     4.7891     3.5264 C.ar    
  18 C18           -3.0647     4.4024     2.2221 C.ar    
  19 C19            3.5597     0.6691    -0.0283 C.2     
  20 O20            4.1855     1.7133    -0.0292 O.2     
  21 N21            4.2144    -0.5089    -0.0404 N.am    
  22 H22            1.5517    -1.4578    -0.0203 H       
  23 H23           -2.4265     0.9161     0.0215 H       
  24 H24           -1.5587     5.5244    -0.5435 H       
  25 H25           -2.7601     4.2208    -0.3833 H       
  26 H26           -0.7160     6.6851     1.4153 H       
  27 H27           -1.1588     7.3785     3.7361 H       
  28 H28           -2.8199     6.1638     5.0884 H       
  29 H29           -4.0387     4.2562     4.1195 H       
  30 H30           -3.5993     3.5658     1.7972 H       
  31 H31            3.7158    -1.3409    -0.0398 H       
  32 H32            5.1842    -0.5247    -0.0498 H       
@<TRIPOS>BOND
   1    1    7 1
   2    1    2 1
   3    1    6 1
   4    2    3 1
   5    2    9 2
   6    3    4 2
   7    4    5 1
   8    4   13 1
   9    5    6 2
  10    5   11 1
  11    6   10 1
  12    7    8 2
  13    8    9 1
  14    8   22 1
  15    9   19 1
  16   10   23 1
  17   11   12 1
  18   11   24 1
  19   11   25 1
  20   12   14 ar
  21   12   18 ar
  22   14   15 ar
  23   14   26 1
  24   15   16 ar
  25   15   27 1
  26   16   17 ar
  27   16   28 1
  28   17   18 ar
  29   17   29 1
  30   18   30 1
  31   19   20 2
  32   19   21 am
  33   21   31 1
  34   21   32 1

#	End of record

