#	Name: ASD03331432
#	Creating user name:	WinNT
#	Creation time:	15. 06. 2019 20:39

#	Modifying user name:	WinNT
#	Modification time:	15. 06. 2019 20:39

#	Program:	/corina/corina34_cracker 3.40 0067  02.08.2006

@<TRIPOS>MOLECULE
ASD03331432
  82   86    0    0    0
SMALL
NO_CHARGES


@<TRIPOS>ATOM
   1 N1            -0.4968     0.4123     3.8634 N.3     
   2 C2             0.9435     0.5699     4.1025 C.3     
   3 C3             1.3945    -0.4196     5.1793 C.3     
   4 C4             1.0884    -1.8462     4.7150 C.3     
   5 C5            -0.4103    -1.9701     4.4265 C.3     
   6 C6            -0.8090    -0.9357     3.3715 C.3     
   7 N7            -2.6606     3.6006     2.1998 N.am    
   8 C8            -2.9883     2.2649     1.6827 C.3     
   9 C9            -2.4833     1.2140     2.6763 C.3     
  10 C10           -0.9920     1.4387     2.9365 C.3     
  11 C11           -0.7829     2.8245     3.5513 C.3     
  12 C12           -1.2686     3.8937     2.5677 C.3     
  13 C13           -0.2361     1.3475     1.6360 C.2     
  14 O14            0.5938     2.1867     1.3568 O.2     
  15 N15           -0.4824     0.3334     0.7831 N.am    
  16 C16            1.8810    -2.1509     3.4423 C.3     
  17 C17            1.4813    -2.8366     5.8130 C.3     
  18 C18           -3.6175     4.5408     2.3290 C.2     
  19 O19           -3.3536     5.6104     2.8442 O.2     
  20 N20           -7.1915     4.1715     1.7221 N.pl3   
  21 C21           -6.1580     4.5818     2.4977 C.2     
  22 C22           -4.9831     4.2728     1.8463 C.2     
  23 C23           -5.3381     3.6478     0.6227 C.2     
  24 C24           -6.6939     3.5999     0.5746 C.2     
  25 C25           -6.2737     5.2583     3.8393 C.3     
  26 C26           -6.2904     4.2002     4.9443 C.3     
  27 C27           -6.4078     4.8870     6.3064 C.3     
  28 O28           -6.4234     3.8988     7.3385 O.3     
  29 C29           -7.4999     3.0295    -0.5263 C.ar    
  30 C30           -7.2492     3.4073    -1.8475 C.ar    
  31 C31           -8.0049     2.8708    -2.8706 C.ar    
  32 C32           -9.0093     1.9602    -2.5886 C.ar    
  33 C33           -9.2622     1.5827    -1.2808 C.ar    
  34 C34           -8.5099     2.1076    -0.2501 C.ar    
  35 Cl35          -9.9556     1.2896    -3.8803 Cl      
  36 Cl36          -5.9907     4.5493    -2.2020 Cl      
  37 C37           -8.5497     4.3035     2.0414 C.ar    
  38 C38           -9.3504     5.1823     1.3242 C.ar    
  39 C39          -10.6887     5.3102     1.6404 C.ar    
  40 C40          -11.2317     4.5634     2.6712 C.ar    
  41 C41          -10.4356     3.6872     3.3878 C.ar    
  42 C42           -9.0981     3.5515     3.0717 C.ar    
  43 Cl43         -12.9143     4.7265     3.0663 Cl      
  44 H44            1.4884     0.3749     3.1788 H       
  45 H45            1.1470     1.5875     4.4361 H       
  46 H46            2.4665    -0.3131     5.3453 H       
  47 H47            0.8600    -0.2163     6.1072 H       
  48 H48           -0.6277    -2.9714     4.0548 H       
  49 H49           -0.9732    -1.7912     5.3426 H       
  50 H50           -1.8783    -1.0117     3.1743 H       
  51 H51           -0.2558    -1.1236     2.4513 H       
  52 H52           -4.0684     2.1717     1.5698 H       
  53 H53           -2.5038     2.1178     0.7175 H       
  54 H54           -3.0337     1.3045     3.6128 H       
  55 H55           -2.6339     0.2179     2.2602 H       
  56 H56           -1.3493     2.8999     4.4796 H       
  57 H57            0.2767     2.9747     3.7579 H       
  58 H58           -0.6439     3.8794     1.6746 H       
  59 H59           -1.2141     4.8753     3.0386 H       
  60 H60           -1.2039    -0.2889     0.9649 H       
  61 H61            0.0618     0.2259    -0.0126 H       
  62 H62            2.9474    -2.0569     3.6471 H       
  63 H63            1.6624    -3.1665     3.1125 H       
  64 H64            1.5977    -1.4462     2.6604 H       
  65 H65            0.9137    -2.6199     6.7179 H       
  66 H66            1.2630    -3.8518     5.4816 H       
  67 H67            2.5471    -2.7438     6.0216 H       
  68 H68           -4.6568     3.2788    -0.1297 H       
  69 H69           -5.4223     5.9230     3.9856 H       
  70 H70           -7.1968     5.8368     3.8762 H       
  71 H71           -7.1418     3.5355     4.7980 H       
  72 H72           -5.3673     3.6217     4.9074 H       
  73 H73           -5.5564     5.5517     6.4527 H       
  74 H74           -7.3309     5.4655     6.3433 H       
  75 H75           -6.4962     4.2634     8.2311 H       
  76 H76           -7.8127     3.1621    -3.8926 H       
  77 H77          -10.0471     0.8723    -1.0674 H       
  78 H78           -8.7053     1.8084     0.7690 H       
  79 H79           -8.9270     5.7656     0.5199 H       
  80 H80          -11.3119     5.9939     1.0831 H       
  81 H81          -10.8617     3.1057     4.1921 H       
  82 H82           -8.4783     2.8640     3.6280 H       
@<TRIPOS>BOND
   1    1    2 1
   2    1    6 1
   3    1   10 1
   4    2    3 1
   5    2   44 1
   6    2   45 1
   7    3    4 1
   8    3   46 1
   9    3   47 1
  10    4    5 1
  11    4   16 1
  12    4   17 1
  13    5    6 1
  14    5   48 1
  15    5   49 1
  16    6   50 1
  17    6   51 1
  18    7    8 1
  19    7   12 1
  20    7   18 am
  21    8    9 1
  22    8   52 1
  23    8   53 1
  24    9   10 1
  25    9   54 1
  26    9   55 1
  27   10   11 1
  28   10   13 1
  29   11   12 1
  30   11   56 1
  31   11   57 1
  32   12   58 1
  33   12   59 1
  34   13   14 2
  35   13   15 am
  36   15   60 1
  37   15   61 1
  38   16   62 1
  39   16   63 1
  40   16   64 1
  41   17   65 1
  42   17   66 1
  43   17   67 1
  44   18   19 2
  45   18   22 1
  46   20   21 1
  47   20   24 1
  48   20   37 1
  49   21   22 2
  50   21   25 1
  51   22   23 1
  52   23   24 2
  53   23   68 1
  54   24   29 1
  55   25   26 1
  56   25   69 1
  57   25   70 1
  58   26   27 1
  59   26   71 1
  60   26   72 1
  61   27   28 1
  62   27   73 1
  63   27   74 1
  64   28   75 1
  65   29   30 ar
  66   29   34 ar
  67   30   31 ar
  68   30   36 1
  69   31   32 ar
  70   31   76 1
  71   32   33 ar
  72   32   35 1
  73   33   34 ar
  74   33   77 1
  75   34   78 1
  76   37   38 ar
  77   37   42 ar
  78   38   39 ar
  79   38   79 1
  80   39   40 ar
  81   39   80 1
  82   40   41 ar
  83   40   43 1
  84   41   42 ar
  85   41   81 1
  86   42   82 1

#	End of record

