#	Name: ASD01912111
#	Creating user name:	WinNT
#	Creation time:	15. 06. 2019 19:59

#	Modifying user name:	WinNT
#	Modification time:	15. 06. 2019 19:59

#	Program:	/corina/corina34_cracker 3.40 0067  02.08.2006

@<TRIPOS>MOLECULE
ASD01912111
  59   63    0    0    0
SMALL
NO_CHARGES


@<TRIPOS>ATOM
   1 N1             0.0270     1.3908    -0.1028 N.2     
   2 C2            -0.0388     0.0591     0.0786 C.2     
   3 C3             1.2319    -0.4205     0.1479 C.2     
   4 N4             2.0697     0.6506     0.0044 N.pl3   
   5 C5             1.2870     1.7582    -0.1490 C.2     
   6 C6             1.7762     3.1412    -0.3366 C.ar    
   7 C7             3.0849     3.4747     0.0151 C.ar    
   8 C8             3.5361     4.7659    -0.1617 C.ar    
   9 C9             2.6924     5.7314    -0.6877 C.ar    
  10 C10            1.3919     5.4054    -1.0386 C.ar    
  11 C11            0.9325     4.1159    -0.8711 C.ar    
  12 C12           -1.2810    -0.7457     0.1846 C.ar    
  13 C13           -2.5253    -0.1251     0.0957 C.ar    
  14 C14           -3.6780    -0.8775     0.1943 C.ar    
  15 C15           -3.5992    -2.2477     0.3814 C.ar    
  16 C16           -2.3639    -2.8690     0.4708 C.ar    
  17 C17           -1.2064    -2.1254     0.3676 C.ar    
  18 C18            3.5342     0.6159     0.0136 C.3     
  19 C19            4.0334     0.8479     1.4164 C.2     
  20 N20            5.3576     0.8587     1.6673 N.am    
  21 O21            3.2436     1.0249     2.3196 O.2     
  22 F22           -4.7302    -2.9805     0.4774 F       
  23 F23            3.1391     6.9949    -0.8585 F       
  24 C24           -5.0244    -0.2074     0.0987 C.3     
  25 C25            5.8660     1.0834     3.0290 C.3     
  26 C26            6.8610    -0.0319     3.3673 C.3     
  27 N27            7.8915    -0.0979     2.3225 N.3     
  28 C28            7.3090    -0.4518     1.0211 C.3     
  29 C29            6.3323     0.6402     0.5878 C.3     
  30 C30            8.8971    -0.9821     2.6727 C.ar    
  31 N31            9.9133    -1.1673     1.8431 N.ar    
  32 C32           10.8907    -2.0050     2.1475 C.ar    
  33 C33           10.8421    -2.6922     3.3503 C.ar    
  34 C34            9.7646    -2.4747     4.1946 C.ar    
  35 N35            8.8233    -1.6191     3.8321 N.ar    
  36 H36            1.5237    -1.4506     0.2897 H       
  37 H37            3.7431     2.7231     0.4254 H       
  38 H38            4.5486     5.0251     0.1105 H       
  39 H39            0.7383     6.1616    -1.4477 H       
  40 H40           -0.0810     3.8628    -1.1453 H       
  41 H41           -2.5876     0.9432    -0.0499 H       
  42 H42           -2.3071    -3.9375     0.6171 H       
  43 H43           -0.2440    -2.6104     0.4374 H       
  44 H44            3.8767    -0.3575    -0.3376 H       
  45 H45            3.9203     1.3955    -0.6431 H       
  46 H46           -5.3457    -0.1843    -0.9426 H       
  47 H47           -5.7504    -0.7646     0.6907 H       
  48 H48           -4.9509     0.8115     0.4789 H       
  49 H49            6.3685     2.0494     3.0775 H       
  50 H50            5.0378     1.0624     3.7373 H       
  51 H51            7.3303     0.1785     4.3283 H       
  52 H52            6.3348    -0.9851     3.4199 H       
  53 H53            8.1033    -0.5459     0.2806 H       
  54 H54            6.7766    -1.3991     1.1065 H       
  55 H55            5.8133     0.3286    -0.3187 H       
  56 H56            6.8770     1.5658     0.4015 H       
  57 H57           11.7163    -2.1521     1.4670 H       
  58 H58           11.6266    -3.3824     3.6234 H       
  59 H59            9.6966    -2.9946     5.1388 H       
@<TRIPOS>BOND
   1    1    2 1
   2    1    5 2
   3    2    3 2
   4    2   12 1
   5    3    4 1
   6    3   36 1
   7    4    5 1
   8    4   18 1
   9    5    6 1
  10    6    7 ar
  11    6   11 ar
  12    7    8 ar
  13    7   37 1
  14    8    9 ar
  15    8   38 1
  16    9   10 ar
  17    9   23 1
  18   10   11 ar
  19   10   39 1
  20   11   40 1
  21   12   13 ar
  22   12   17 ar
  23   13   14 ar
  24   13   41 1
  25   14   15 ar
  26   14   24 1
  27   15   16 ar
  28   15   22 1
  29   16   17 ar
  30   16   42 1
  31   17   43 1
  32   18   19 1
  33   18   44 1
  34   18   45 1
  35   19   20 am
  36   19   21 2
  37   20   25 1
  38   20   29 1
  39   24   46 1
  40   24   47 1
  41   24   48 1
  42   25   26 1
  43   25   49 1
  44   25   50 1
  45   26   27 1
  46   26   51 1
  47   26   52 1
  48   27   28 1
  49   27   30 1
  50   28   29 1
  51   28   53 1
  52   28   54 1
  53   29   55 1
  54   29   56 1
  55   30   31 ar
  56   30   35 ar
  57   31   32 ar
  58   32   33 ar
  59   32   57 1
  60   33   34 ar
  61   33   58 1
  62   34   35 ar
  63   34   59 1

#	End of record

