#	Name: ASD00990069
#	Creating user name:	WinNT
#	Creation time:	15. 06. 2019 18:54

#	Modifying user name:	WinNT
#	Modification time:	15. 06. 2019 18:54

#	Program:	/corina/corina34_cracker 3.40 0067  02.08.2006

@<TRIPOS>MOLECULE
ASD00990069
  31   30    0    0    0
SMALL
NO_CHARGES


@<TRIPOS>ATOM
   1 C1            -0.0170     1.4007     0.0097 C.ar    
   2 C2             0.0021    -0.0041     0.0020 C.ar    
   3 C3            -1.1918    -0.7124     0.0103 C.ar    
   4 C4            -2.3933    -0.0281     0.0261 C.ar    
   5 C5            -2.4095     1.3648     0.0333 C.ar    
   6 C6            -1.2418     2.0737     0.0301 C.ar    
   7 N7             1.2773     1.8141    -0.0004 N.2     
   8 C8             2.0666     0.7803    -0.0135 C.2     
   9 N9             1.3342    -0.3673    -0.0127 N.pl3   
  10 C10            3.5722     0.8438    -0.0275 C.3     
  11 N11            4.0431     0.9930    -1.4110 N.3     
  12 C12            5.5097     1.0584    -1.4637 C.3     
  13 Br13          -4.0627     2.2826     0.0543 Br      
  14 O14           -3.5647    -0.7182     0.0342 O.3     
  15 C15           -3.4775    -2.1445     0.0257 C.3     
  16 H16           -1.1822    -1.7923     0.0040 H       
  17 H17           -1.2651     3.1534     0.0361 H       
  18 H18            1.6834    -1.2722    -0.0204 H       
  19 H19            3.9054     1.6967     0.5637 H       
  20 H20            3.9785    -0.0740     0.3976 H       
  21 H21            3.6932     0.2478    -1.9944 H       
  22 H22            5.8564     1.9128    -0.8824 H       
  23 H23            5.9294     0.1421    -1.0485 H       
  24 H24            5.8315     1.1688    -2.4992 H       
  25 H25           -2.9515    -2.4710    -0.8714 H       
  26 H26           -2.9335    -2.4806     0.9085 H       
  27 H27           -4.4810    -2.5700     0.0336 H       
  28 Cl28          10.9294     8.1534     5.9085 Cl      
  29 H29           10.9294     9.5234     5.9085 H       
  30 Cl30          15.9294    14.5234    10.9085 Cl      
  31 H31           15.9294    15.8934    10.9085 H       
@<TRIPOS>BOND
   1    1    2 ar
   2    1    7 1
   3    1    6 ar
   4    2    3 ar
   5    2    9 1
   6    3    4 ar
   7    3   16 1
   8    4    5 ar
   9    4   14 1
  10    5    6 ar
  11    5   13 1
  12    6   17 1
  13    7    8 2
  14    8    9 1
  15    8   10 1
  16    9   18 1
  17   10   11 1
  18   10   19 1
  19   10   20 1
  20   11   12 1
  21   11   21 1
  22   12   22 1
  23   12   23 1
  24   12   24 1
  25   14   15 1
  26   15   25 1
  27   15   26 1
  28   15   27 1
  29   28   29 1
  30   30   31 1

#	End of record

