#	Name: ASD03430963
#	Creating user name:	WinNT
#	Creation time:	15. 06. 2019 20:41

#	Modifying user name:	WinNT
#	Modification time:	15. 06. 2019 20:41

#	Program:	/corina/corina34_cracker 3.40 0067  02.08.2006

@<TRIPOS>MOLECULE
ASD03430963
  52   57    0    0    0
SMALL
NO_CHARGES


@<TRIPOS>ATOM
   1 O1            -0.0173     1.4277     0.0099 O.3     
   2 C2             0.0021    -0.0041     0.0020 C.3     
   3 C3             1.0273    -0.4758     1.0420 C.3     
   4 O4             2.3077     0.0539     0.6823 O.3     
   5 C5             2.3523     1.3714     0.3415 C.ar    
   6 C6             1.1909     2.0555     0.0017 C.ar    
   7 C7             3.5706     2.0299     0.3366 C.ar    
   8 C8             3.6435     3.3752    -0.0114 C.ar    
   9 C9             2.4766     4.0453    -0.3624 C.ar    
  10 C10            1.2613     3.3943    -0.3519 C.ar    
  11 O11            4.7235     4.2060    -0.0614 O.3     
  12 C12            2.8759     5.4572    -0.7135 C.3     
  13 C13            4.4025     5.3524    -0.8712 C.3     
  14 C14            2.2275     5.9134    -1.9885 C.2     
  15 C15            1.4670     7.1681    -1.6198 C.3     
  16 C16            1.6937     7.4121    -0.1470 C.ar    
  17 C17            1.2232     8.4230     0.6763 C.ar    
  18 C18            1.5648     8.4479     2.0137 C.ar    
  19 C19            2.3804     7.4606     2.5347 C.ar    
  20 C20            2.8499     6.4525     1.7169 C.ar    
  21 C21            2.5075     6.4242     0.3734 C.ar    
  22 O22            2.2982     5.3912    -3.0750 O.2     
  23 C23            1.9941     8.3534    -2.4310 C.3     
  24 C24            1.6706     8.1482    -3.8885 C.ar    
  25 C25            0.4369     8.5288    -4.3830 C.ar    
  26 C26            0.1402     8.3405    -5.7197 C.ar    
  27 C27            1.0774     7.7721    -6.5624 C.ar    
  28 C28            2.3110     7.3925    -6.0682 C.ar    
  29 C29            2.6094     7.5848    -4.7320 C.ar    
  30 C30           -0.5846     9.1483    -3.4645 C.3     
  31 F31           -0.4212    10.5377    -3.4549 F       
  32 H32           -0.9856    -0.3866     0.2596 H       
  33 H33            0.2895    -0.3624    -0.9864 H       
  34 H34            0.7433    -0.1119     2.0294 H       
  35 H35            1.0690    -1.5650     1.0492 H       
  36 H36            4.4701     1.4958     0.6050 H       
  37 H37            0.3618     3.9285    -0.6199 H       
  38 H38            4.8934     6.2467    -0.4876 H       
  39 H39            4.6727     5.1781    -1.9127 H       
  40 H40            0.4035     7.0273    -1.8129 H       
  41 H41            0.5861     9.1945     0.2698 H       
  42 H42            1.1954     9.2370     2.6518 H       
  43 H43            2.6501     7.4782     3.5804 H       
  44 H44            3.4871     5.6821     2.1254 H       
  45 H45            1.5233     9.2718    -2.0801 H       
  46 H46            3.0742     8.4280    -2.3055 H       
  47 H47           -0.8238     8.6371    -6.1059 H       
  48 H48            0.8453     7.6243    -7.6068 H       
  49 H49            3.0430     6.9481    -6.7264 H       
  50 H50            3.5748     7.2916    -4.3466 H       
  51 H51           -1.5864     8.9028    -3.8168 H       
  52 H52           -0.4489     8.7596    -2.4552 H       
@<TRIPOS>BOND
   1    1    2 1
   2    1    6 1
   3    2    3 1
   4    2   32 1
   5    2   33 1
   6    3    4 1
   7    3   34 1
   8    3   35 1
   9    4    5 1
  10    5    6 ar
  11    5    7 ar
  12    6   10 ar
  13    7    8 ar
  14    7   36 1
  15    8    9 ar
  16    8   11 1
  17    9   10 ar
  18    9   12 1
  19   10   37 1
  20   11   13 1
  21   12   13 1
  22   12   14 1
  23   12   21 1
  24   13   38 1
  25   13   39 1
  26   14   15 1
  27   14   22 2
  28   15   16 1
  29   15   23 1
  30   15   40 1
  31   16   17 ar
  32   16   21 ar
  33   17   18 ar
  34   17   41 1
  35   18   19 ar
  36   18   42 1
  37   19   20 ar
  38   19   43 1
  39   20   21 ar
  40   20   44 1
  41   23   24 1
  42   23   45 1
  43   23   46 1
  44   24   25 ar
  45   24   29 ar
  46   25   26 ar
  47   25   30 1
  48   26   27 ar
  49   26   47 1
  50   27   28 ar
  51   27   48 1
  52   28   29 ar
  53   28   49 1
  54   29   50 1
  55   30   31 1
  56   30   51 1
  57   30   52 1

#	End of record

