#	Name: ASD01410606
#	Creating user name:	WinNT
#	Creation time:	15. 06. 2019 19:18

#	Modifying user name:	WinNT
#	Modification time:	15. 06. 2019 19:18

#	Program:	/corina/corina34_cracker 3.40 0067  02.08.2006

@<TRIPOS>MOLECULE
ASD01410606
  81   84    0    0    0
SMALL
NO_CHARGES


@<TRIPOS>ATOM
   1 C1            -2.4813     3.2465     2.0059 C.2     
   2 O2            -2.5363     2.6995     0.7632 O.3     
   3 C3            -3.1664     1.5035     0.6197 C.ar    
   4 C4            -4.5480     1.4282     0.7518 C.ar    
   5 C5            -5.1976     0.2191     0.6075 C.ar    
   6 C6            -4.4740    -0.9321     0.3291 C.ar    
   7 C7            -3.0789    -0.8629     0.1946 C.ar    
   8 C8            -2.4311     0.3664     0.3371 C.ar    
   9 N9            -5.1309    -2.1532     0.1840 N.am    
  10 C10           -5.5560    -2.5494    -1.0320 C.2     
  11 C11           -5.3591    -3.0057     1.3534 C.3     
  12 O12           -6.2024    -3.5693    -1.1459 O.2     
  13 C13           -5.2282    -1.7251    -2.2503 C.3     
  14 C14           -6.3861    -1.8055    -3.2471 C.3     
  15 C15           -6.0532    -0.9686    -4.4840 C.3     
  16 C16           -4.7794    -1.5085    -5.1374 C.3     
  17 C17           -3.6215    -1.4282    -4.1405 C.3     
  18 C18           -3.9544    -2.2650    -2.9037 C.3     
  19 C19           -4.4466    -0.6717    -6.3742 C.3     
  20 C20           -4.5985    -2.4390     2.5539 C.3     
  21 O21           -7.5504    -3.6988     0.6061 O.3     
  22 C22           -6.8553    -3.0464     1.6706 C.3     
  23 C23           -8.9627    -3.7903     0.8040 C.3     
  24 O24           -3.1933    -2.5101     2.3042 O.3     
  25 C25           -2.3872    -2.0032     3.3697 C.3     
  26 S26           -3.2448     2.5791     3.4429 S.3     
  27 C27           -1.8325     4.3740     2.3258 C.2     
  28 C28           -1.9195     4.7347     3.6610 C.2     
  29 C29           -2.6324     3.9050     4.4225 C.2     
  30 C30           -2.8756     4.0764     5.8998 C.3     
  31 N31           -4.0984     4.8639     6.1066 N.3     
  32 C32           -4.4989     4.8527     7.5193 C.3     
  33 C33           -5.6862     5.7968     7.7218 C.3     
  34 C34           -6.8508     5.3412     6.8381 C.3     
  35 C35           -6.3929     5.3152     5.3772 C.3     
  36 C36           -5.1851     4.3851     5.2428 C.3     
  37 F37           -7.4349     4.8473     4.5694 F       
  38 F38           -6.0345     6.6069     4.9770 F       
  39 Br39          -0.8724     5.3933     1.0550 Br      
  40 C40           -2.3018    -2.0801    -0.1006 C.2     
  41 O41           -2.8749    -3.1307    -0.3110 O.2     
  42 O42           -0.9557    -2.0278    -0.1370 O.3     
  43 H43           -5.1162     2.3206     0.9687 H       
  44 H44           -6.2714     0.1685     0.7119 H       
  45 H45           -1.3577     0.4277     0.2346 H       
  46 H46           -5.0049    -4.0146     1.1422 H       
  47 H47           -5.0736    -0.6871    -1.9558 H       
  48 H48           -6.5407    -2.8435    -3.5416 H       
  49 H49           -7.2936    -1.4208    -2.7817 H       
  50 H50           -6.8782    -1.0259    -5.1941 H       
  51 H51           -5.8986     0.0694    -4.1895 H       
  52 H52           -4.9340    -2.5466    -5.4318 H       
  53 H53           -2.7141    -1.8128    -4.6060 H       
  54 H54           -3.4669    -0.3902    -3.8461 H       
  55 H55           -3.1294    -2.2078    -2.1935 H       
  56 H56           -4.1090    -3.3031    -3.1981 H       
  57 H57           -4.2920     0.3663    -6.0798 H       
  58 H58           -3.5391    -1.0563    -6.8397 H       
  59 H59           -5.2715    -0.7289    -7.0844 H       
  60 H60           -4.8877    -1.3996     2.7096 H       
  61 H61           -4.8392    -3.0203     3.4439 H       
  62 H62           -7.0151    -3.5949     2.5989 H       
  63 H63           -7.2313    -2.0292     1.7804 H       
  64 H64           -9.1662    -4.3543     1.7143 H       
  65 H65           -9.3823    -2.7885     0.8958 H       
  66 H66           -9.4167    -4.2979    -0.0470 H       
  67 H67           -1.3342    -2.0926     3.1029 H       
  68 H68           -2.6305    -0.9549     3.5423 H       
  69 H69           -2.5821    -2.5756     4.2767 H       
  70 H70           -1.4438     5.6205     4.0552 H       
  71 H71           -2.9909     3.0975     6.3650 H       
  72 H72           -2.0290     4.5951     6.3496 H       
  73 H73           -4.7858     3.8414     7.8075 H       
  74 H74           -3.6632     5.1828     8.1364 H       
  75 H75           -5.9932     5.7764     8.7674 H       
  76 H76           -5.3959     6.8108     7.4468 H       
  77 H77           -7.1669     4.3422     7.1386 H       
  78 H78           -7.6837     6.0358     6.9465 H       
  79 H79           -4.8477     4.3754     4.2063 H       
  80 H80           -5.4687     3.3759     5.5416 H       
  81 H81           -0.4896    -2.8516    -0.3346 H       
@<TRIPOS>BOND
   1    1    2 1
   2    1   27 2
   3    1   26 1
   4    2    3 1
   5    3    4 ar
   6    3    8 ar
   7    4    5 ar
   8    4   43 1
   9    5    6 ar
  10    5   44 1
  11    6    7 ar
  12    6    9 1
  13    7    8 ar
  14    7   40 1
  15    8   45 1
  16    9   10 am
  17    9   11 1
  18   10   12 2
  19   10   13 1
  20   11   20 1
  21   11   22 1
  22   11   46 1
  23   13   14 1
  24   13   18 1
  25   13   47 1
  26   14   15 1
  27   14   48 1
  28   14   49 1
  29   15   16 1
  30   15   50 1
  31   15   51 1
  32   16   17 1
  33   16   19 1
  34   16   52 1
  35   17   18 1
  36   17   53 1
  37   17   54 1
  38   18   55 1
  39   18   56 1
  40   19   57 1
  41   19   58 1
  42   19   59 1
  43   20   24 1
  44   20   60 1
  45   20   61 1
  46   21   22 1
  47   21   23 1
  48   22   62 1
  49   22   63 1
  50   23   64 1
  51   23   65 1
  52   23   66 1
  53   24   25 1
  54   25   67 1
  55   25   68 1
  56   25   69 1
  57   26   29 1
  58   27   28 1
  59   27   39 1
  60   28   29 2
  61   28   70 1
  62   29   30 1
  63   30   31 1
  64   30   71 1
  65   30   72 1
  66   31   32 1
  67   31   36 1
  68   32   33 1
  69   32   73 1
  70   32   74 1
  71   33   34 1
  72   33   75 1
  73   33   76 1
  74   34   35 1
  75   34   77 1
  76   34   78 1
  77   35   36 1
  78   35   37 1
  79   35   38 1
  80   36   79 1
  81   36   80 1
  82   40   41 2
  83   40   42 1
  84   42   81 1

#	End of record

