#	Name: ASD04590528
#	Creating user name:	WinNT
#	Creation time:	15. 06. 2019 20:51

#	Modifying user name:	WinNT
#	Modification time:	15. 06. 2019 20:51

#	Program:	/corina/corina34_cracker 3.40 0067  02.08.2006

@<TRIPOS>MOLECULE
ASD04590528
  62   66    0    0    0
SMALL
NO_CHARGES


@<TRIPOS>ATOM
   1 C1            -0.0167     1.3835     0.0096 C.ar    
   2 C2             0.0021    -0.0041     0.0020 C.ar    
   3 C3            -2.3904    -0.0461     0.0246 C.ar    
   4 C4            -2.4092     1.3598     0.0439 C.ar    
   5 C5            -1.2147     2.0663     0.0305 C.ar    
   6 N6            -3.6797    -0.4642     0.0445 N.2     
   7 C7            -4.4792     0.5746     0.0743 C.2     
   8 N8            -3.7407     1.7275     0.0753 N.pl3   
   9 C9            -5.9551     0.5106     0.1027 C.2     
  10 C10           -6.7367    -0.6686     0.1028 C.2     
  11 C11           -8.0416    -0.2989     0.1339 C.2     
  12 N12           -8.0893     1.0584     0.1529 N.pl3   
  13 N13           -6.7752     1.5423     0.1382 N.2     
  14 N14           -6.2503    -1.9828     0.0749 N.am    
  15 C15           -7.1108    -3.0201     0.0786 C.2     
  16 O16           -8.3074    -2.8161     0.1060 O.2     
  17 C17           -1.1632    -0.7168     0.0093 C.ar    
  18 C18           -6.5931    -4.4186     0.0489 C.2     
  19 C19           -7.5381    -5.5577     0.0529 C.2     
  20 C20            1.2811     2.1494     0.0014 C.3     
  21 C21           -7.2094    -6.9433     0.0273 C.2     
  22 O22           -5.3977    -4.6224     0.0215 O.2     
  23 N23            1.6895     2.4057    -1.3862 N.3     
  24 C24            2.8166     3.3482    -1.4381 C.3     
  25 C25            3.2476     3.5403    -2.8946 C.3     
  26 O26            2.1285     3.9918    -3.6620 O.3     
  27 C27            1.0128     3.0975    -3.6342 C.3     
  28 C28            0.5592     2.9010    -2.1852 C.3     
  29 N29           -8.8481    -5.4958     0.0865 N.2     
  30 O30           -9.3420    -6.5993     0.0799 O.3     
  31 C31           -8.4113    -7.5632     0.0436 C.2     
  32 C32           -8.6566    -9.0500     0.0247 C.3     
  33 C33           -8.7073    -9.5768     1.4603 C.3     
  34 C34           -9.0795   -11.0608     1.4461 C.3     
  35 C35           -7.3365    -9.4011     2.1167 C.3     
  36 H36            0.9477    -0.5257    -0.0102 H       
  37 H37           -1.2234     3.1463     0.0367 H       
  38 H38           -4.0875     2.6332     0.0948 H       
  39 H39           -8.8914    -0.9653     0.1419 H       
  40 H40           -8.8943     1.5991     0.1762 H       
  41 H41           -5.2943    -2.1457     0.0530 H       
  42 H42           -1.1369    -1.7965     0.0029 H       
  43 H43            1.1466     3.0978     0.5216 H       
  44 H44            2.0512     1.5649     0.5047 H       
  45 H45           -6.2283    -7.3941     0.0006 H       
  46 H46            2.5091     4.3067    -1.0201 H       
  47 H47            3.6511     2.9497    -0.8611 H       
  48 H48            4.0453     4.2815    -2.9433 H       
  49 H49            3.6057     2.5923    -3.2962 H       
  50 H50            0.1942     3.5185    -4.2179 H       
  51 H51            1.3059     2.1367    -4.0574 H       
  52 H52           -0.2541     2.1760    -2.1536 H       
  53 H53            0.2156     3.8523    -1.7792 H       
  54 H54           -9.6052    -9.2554    -0.4714 H       
  55 H55           -7.8494    -9.5446    -0.5156 H       
  56 H56           -9.4548    -9.0201     2.0254 H       
  57 H57           -8.3320   -11.6175     0.8809 H       
  58 H58           -9.1156   -11.4361     2.4688 H       
  59 H59          -10.0561   -11.1859     0.9784 H       
  60 H60           -7.0713    -8.3439     2.1268 H       
  61 H61           -7.3726    -9.7764     3.1394 H       
  62 H62           -6.5890    -9.9578     1.5515 H       
@<TRIPOS>BOND
   1    1    2 ar
   2    1   20 1
   3    1    5 ar
   4    2   17 ar
   5    2   36 1
   6    3    4 ar
   7    3    6 1
   8    3   17 ar
   9    4    5 ar
  10    4    8 1
  11    5   37 1
  12    6    7 2
  13    7    8 1
  14    7    9 1
  15    8   38 1
  16    9   10 1
  17    9   13 2
  18   10   11 2
  19   10   14 1
  20   11   12 1
  21   11   39 1
  22   12   13 1
  23   12   40 1
  24   14   15 am
  25   14   41 1
  26   15   16 2
  27   15   18 1
  28   17   42 1
  29   18   19 1
  30   18   22 2
  31   19   21 1
  32   19   29 2
  33   20   23 1
  34   20   43 1
  35   20   44 1
  36   21   31 2
  37   21   45 1
  38   23   24 1
  39   23   28 1
  40   24   25 1
  41   24   46 1
  42   24   47 1
  43   25   26 1
  44   25   48 1
  45   25   49 1
  46   26   27 1
  47   27   28 1
  48   27   50 1
  49   27   51 1
  50   28   52 1
  51   28   53 1
  52   29   30 1
  53   30   31 1
  54   31   32 1
  55   32   33 1
  56   32   54 1
  57   32   55 1
  58   33   34 1
  59   33   35 1
  60   33   56 1
  61   34   57 1
  62   34   58 1
  63   34   59 1
  64   35   60 1
  65   35   61 1
  66   35   62 1

#	End of record

