#	Name: ASD01230006
#	Creating user name:	WinNT
#	Creation time:	15. 06. 2019 19:11

#	Modifying user name:	WinNT
#	Modification time:	15. 06. 2019 19:11

#	Program:	/corina/corina34_cracker 3.40 0067  02.08.2006

@<TRIPOS>MOLECULE
ASD01230006
  23   24    0    0    0
SMALL
NO_CHARGES


@<TRIPOS>ATOM
   1 C1            -0.0167     1.3794     0.0096 C.ar    
   2 C2             0.0021    -0.0041     0.0020 C.ar    
   3 C3             1.2124    -0.6763    -0.0058 C.ar    
   4 C4             2.3951     0.0325    -0.0059 C.ar    
   5 C5             2.3872     1.4211    -0.0132 C.ar    
   6 C6             1.1652     2.0908     0.0022 C.ar    
   7 S7             3.9380    -0.8293     0.0215 S.o2    
   8 N8             5.0860     0.3436    -0.2769 N.am    
   9 C9             4.8585     1.6500     0.3733 C.3     
  10 N10            3.5622     2.1681    -0.0572 N.pl3   
  11 C11            4.8619     1.4743     1.8932 C.3     
  12 O12            4.1386    -1.2690     1.3578 O.2     
  13 O13            3.9409    -1.7011    -1.1007 O.2     
  14 Cl14          -1.4881    -0.8946     0.0028 Cl      
  15 H15           -0.9604     1.9044     0.0169 H       
  16 H16            1.2302    -1.7562    -0.0114 H       
  17 H17            1.1434     3.1706     0.0082 H       
  18 H18            5.8562     0.1777    -0.8428 H       
  19 H19            5.6454     2.3456     0.0816 H       
  20 H20            3.5174     3.0778    -0.3908 H       
  21 H21            5.8250     1.0746     2.2106 H       
  22 H22            4.6938     2.4395     2.3709 H       
  23 H23            4.0692     0.7835     2.1808 H       
@<TRIPOS>BOND
   1    1    2 ar
   2    1    6 ar
   3    1   15 1
   4    2    3 ar
   5    2   14 1
   6    3    4 ar
   7    3   16 1
   8    4    5 ar
   9    4    7 1
  10    5    6 ar
  11    5   10 1
  12    6   17 1
  13    7    8 am
  14    7   12 2
  15    7   13 2
  16    8    9 1
  17    8   18 1
  18    9   10 1
  19    9   11 1
  20    9   19 1
  21   10   20 1
  22   11   21 1
  23   11   22 1
  24   11   23 1

#	End of record

