#	Name: ASD09116276
#	Creating user name:	WinNT
#	Creation time:	15. 06. 2019 21:21

#	Modifying user name:	WinNT
#	Modification time:	15. 06. 2019 21:21

#	Program:	/corina/corina34_cracker 3.40 0067  02.08.2006

@<TRIPOS>MOLECULE
ASD09116276
  71   77    0    0    0
SMALL
NO_CHARGES


@<TRIPOS>ATOM
   1 N1            -0.0297     1.4196     0.1500 N.pl3   
   2 N2            -0.0212     0.0209     0.2745 N.2     
   3 C3             1.2668     1.8083     0.1173 C.2     
   4 N4             2.0154     0.7301     0.2143 N.2     
   5 C5             1.2355    -0.3527     0.3095 C.2     
   6 N6             1.7236     3.1081     0.0019 N.pl3   
   7 C7             3.0942     3.3795     0.0960 C.ar    
   8 C8             3.6352     4.4643    -0.5814 C.ar    
   9 C9             5.8064     3.9145     0.2838 C.ar    
  10 C10            5.2631     2.8340     0.9648 C.ar    
  11 C11            3.9112     2.5671     0.8714 C.ar    
  12 C12           -1.1526     2.2451     0.0698 C.ar    
  13 N13           -1.0704     3.5132     0.4438 N.ar    
  14 N14           -2.0762     4.3125     0.3988 N.ar    
  15 C15           -3.2632     3.9107    -0.0265 C.ar    
  16 C16           -3.4392     2.5941    -0.4619 C.ar    
  17 C17           -2.3616     1.7354    -0.4103 C.ar    
  18 C18           -4.4368     4.8145    -0.0284 C.ar    
  19 C19           -5.6325     4.3686     0.5371 C.ar    
  20 C20           -5.6827     3.0100     1.1807 C.3     
  21 C21           -5.7583     1.9009     0.1350 C.3     
  22 C22           -4.7713     2.1596    -1.0001 C.3     
  23 C23           -4.3623     6.0865    -0.5850 C.ar    
  24 C24           -5.4814     6.8965    -0.5917 C.ar    
  25 C25           -6.6700     6.4430    -0.0490 C.ar    
  26 C26           -6.7460     5.1807     0.5138 C.ar    
  27 N27            1.6863    -1.6670     0.4275 N.pl3   
  28 N28            7.1779     4.1850     0.3789 N.3     
  29 C29            7.5687     4.4418     1.7720 C.3     
  30 C30            9.0828     4.6536     1.8436 C.3     
  31 N31            9.4587     5.7801     0.9779 N.3     
  32 C32            9.0679     5.5232    -0.4152 C.3     
  33 C33            7.5538     5.3115    -0.4868 C.3     
  34 C34            4.9883     4.7320    -0.4883 C.ar    
  35 F35            5.5156     5.7869    -1.1474 F       
  36 C36           10.8967     6.0636     1.0776 C.3     
  37 C37           11.2958     7.0638    -0.0092 C.3     
  38 C38           12.7363     7.5794    -0.0002 C.3     
  39 C39           12.2845     6.5903    -1.0765 C.3     
  40 H40            1.0947     3.8320    -0.1443 H       
  41 H41            2.9992     5.0985    -1.1812 H       
  42 H42            5.8978     2.2015     1.5678 H       
  43 H43            3.4891     1.7264     1.4018 H       
  44 H44           -2.4509     0.7051    -0.7219 H       
  45 H45           -4.7873     2.8690     1.7860 H       
  46 H46           -6.5600     2.9530     1.8251 H       
  47 H47           -5.5215     0.9469     0.6060 H       
  48 H48           -6.7690     1.8588    -0.2710 H       
  49 H49           -5.1678     2.9406    -1.6489 H       
  50 H50           -4.6429     1.2449    -1.5789 H       
  51 H51           -3.4342     6.4396    -1.0097 H       
  52 H52           -5.4279     7.8860    -1.0212 H       
  53 H53           -7.5439     7.0774    -0.0647 H       
  54 H54           -7.6774     4.8324     0.9351 H       
  55 H55            2.6380    -1.8536     0.4454 H       
  56 H56            1.0481    -2.3947     0.4917 H       
  57 H57            7.0592     5.3348     2.1339 H       
  58 H58            7.2913     3.5885     2.3908 H       
  59 H59            9.3712     4.8729     2.8716 H       
  60 H60            9.5926     3.7507     1.5073 H       
  61 H61            9.3454     6.3766    -1.0340 H       
  62 H62            9.5775     4.6302    -0.7771 H       
  63 H63            7.2655     5.0921    -1.5148 H       
  64 H64            7.0441     6.2143    -0.1505 H       
  65 H65           11.1167     6.4855     2.0583 H       
  66 H66           11.4593     5.1395     0.9452 H       
  67 H67           10.5147     7.7581    -0.3189 H       
  68 H68           12.9029     8.6128    -0.3043 H       
  69 H69           13.3996     7.2060     0.7800 H       
  70 H70           12.6506     5.5661    -1.0044 H       
  71 H71           12.1539     6.9729    -2.0887 H       
@<TRIPOS>BOND
   1    1    2 1
   2    1    3 1
   3    1   12 1
   4    2    5 2
   5    3    4 2
   6    3    6 1
   7    4    5 1
   8    5   27 1
   9    6    7 1
  10    6   40 1
  11    7    8 ar
  12    7   11 ar
  13    8   34 ar
  14    8   41 1
  15    9   10 ar
  16    9   28 1
  17    9   34 ar
  18   10   11 ar
  19   10   42 1
  20   11   43 1
  21   12   13 ar
  22   12   17 ar
  23   13   14 ar
  24   14   15 ar
  25   15   16 ar
  26   15   18 1
  27   16   17 ar
  28   16   22 1
  29   17   44 1
  30   18   19 ar
  31   18   23 ar
  32   19   20 1
  33   19   26 ar
  34   20   21 1
  35   20   45 1
  36   20   46 1
  37   21   22 1
  38   21   47 1
  39   21   48 1
  40   22   49 1
  41   22   50 1
  42   23   24 ar
  43   23   51 1
  44   24   25 ar
  45   24   52 1
  46   25   26 ar
  47   25   53 1
  48   26   54 1
  49   27   55 1
  50   27   56 1
  51   28   29 1
  52   28   33 1
  53   29   30 1
  54   29   57 1
  55   29   58 1
  56   30   31 1
  57   30   59 1
  58   30   60 1
  59   31   32 1
  60   31   36 1
  61   32   33 1
  62   32   61 1
  63   32   62 1
  64   33   63 1
  65   33   64 1
  66   34   35 1
  67   36   37 1
  68   36   65 1
  69   36   66 1
  70   37   38 1
  71   37   39 1
  72   37   67 1
  73   38   39 1
  74   38   68 1
  75   38   69 1
  76   39   70 1
  77   39   71 1

#	End of record

