#	Name: ASD01885484
#	Creating user name:	WinNT
#	Creation time:	15. 06. 2019 19:49

#	Modifying user name:	WinNT
#	Modification time:	15. 06. 2019 19:49

#	Program:	/corina/corina34_cracker 3.40 0067  02.08.2006

@<TRIPOS>MOLECULE
ASD01885484
  51   54    0    0    0
SMALL
NO_CHARGES


@<TRIPOS>ATOM
   1 C1             0.0996     1.0457    -0.5102 C.ar    
   2 C2             0.2259    -0.1443    -1.2281 C.ar    
   3 N3            -0.8209    -0.9378    -1.5648 N.2     
   4 C4            -1.9639    -0.5469    -1.9956 C.2     
   5 C5            -2.2955     0.9144    -2.1487 C.3     
   6 C6            -2.2454     1.5531    -0.7837 C.2     
   7 N7            -1.1156     1.5575    -0.0764 N.am    
   8 C8             1.2417     1.7841    -0.2032 C.ar    
   9 C9             2.4936     1.3511    -0.6070 C.ar    
  10 C10            2.6200     0.1671    -1.3279 C.ar    
  11 C11            1.5035    -0.5710    -1.6352 C.ar    
  12 C12           -2.9794    -1.5539    -2.3507 C.ar    
  13 O13           -3.2429     2.0689    -0.3256 O.2     
  14 C14           -4.2406    -1.1682    -2.8251 C.ar    
  15 C15           -5.1663    -2.1427    -3.1481 C.ar    
  16 N16           -4.8814    -3.4208    -3.0165 N.ar    
  17 C17           -3.7007    -3.8369    -2.5713 C.ar    
  18 C18           -2.7086    -2.9227    -2.2288 C.ar    
  19 C19           -3.4445    -5.2403    -2.4474 C.1     
  20 N20            3.6284     2.1021    -0.2916 N.pl3   
  21 C21            4.7907     1.4712     0.0577 C.2     
  22 N22            5.8973     2.1726     0.2295 N.2     
  23 N23            4.8074     0.1156     0.2291 N.pl3   
  24 C24            6.0821    -0.5848     0.4050 C.3     
  25 C25            5.9119     3.4965    -0.0584 C.1     
  26 N26            5.9241     4.6065    -0.2998 N.1     
  27 C27            5.8255    -2.0603     0.5726 C.ar    
  28 C28            5.7897    -2.8859    -0.5357 C.ar    
  29 C29            5.5543    -4.2393    -0.3820 C.ar    
  30 C30            5.3552    -4.7673     0.8799 C.ar    
  31 C31            5.3919    -3.9420     1.9882 C.ar    
  32 C32            5.6316    -2.5892     1.8349 C.ar    
  33 N33           -3.2413    -6.3537    -2.3490 N.1     
  34 H34           -1.5665     1.3903    -2.8045 H       
  35 H35           -3.2953     1.0227    -2.5690 H       
  36 H36           -1.1447     1.9470     0.8115 H       
  37 H37            1.1491     2.7038     0.3553 H       
  38 H38            3.5953    -0.1704    -1.6460 H       
  39 H39            1.6071    -1.4889    -2.1948 H       
  40 H40           -4.4863    -0.1225    -2.9365 H       
  41 H41           -6.1395    -1.8504    -3.5140 H       
  42 H42           -1.7495    -3.2628    -1.8670 H       
  43 H43            3.5922     3.0710    -0.3203 H       
  44 H44            3.9754    -0.3829     0.2342 H       
  45 H45            6.7099    -0.4224    -0.4711 H       
  46 H46            6.5882    -0.2012     1.2909 H       
  47 H47            5.9452    -2.4733    -1.5216 H       
  48 H48            5.5256    -4.8842    -1.2479 H       
  49 H49            5.1706    -5.8247     0.9999 H       
  50 H50            5.2360    -4.3545     2.9741 H       
  51 H51            5.6603    -1.9444     2.7008 H       
@<TRIPOS>BOND
   1    1    2 ar
   2    1    8 ar
   3    1    7 1
   4    2    3 1
   5    2   11 ar
   6    3    4 2
   7    4    5 1
   8    4   12 1
   9    5    6 1
  10    5   34 1
  11    5   35 1
  12    6    7 am
  13    6   13 2
  14    7   36 1
  15    8    9 ar
  16    8   37 1
  17    9   10 ar
  18    9   20 1
  19   10   11 ar
  20   10   38 1
  21   11   39 1
  22   12   14 ar
  23   12   18 ar
  24   14   15 ar
  25   14   40 1
  26   15   16 ar
  27   15   41 1
  28   16   17 ar
  29   17   18 ar
  30   17   19 1
  31   18   42 1
  32   19   33 3
  33   20   21 1
  34   20   43 1
  35   21   22 2
  36   21   23 1
  37   22   25 1
  38   23   24 1
  39   23   44 1
  40   24   27 1
  41   24   45 1
  42   24   46 1
  43   25   26 3
  44   27   28 ar
  45   27   32 ar
  46   28   29 ar
  47   28   47 1
  48   29   30 ar
  49   29   48 1
  50   30   31 ar
  51   30   49 1
  52   31   32 ar
  53   31   50 1
  54   32   51 1

#	End of record

