#	Name: ASD01478005
#	Creating user name:	WinNT
#	Creation time:	15. 06. 2019 19:21

#	Modifying user name:	WinNT
#	Modification time:	15. 06. 2019 19:21

#	Program:	/corina/corina34_cracker 3.40 0067  02.08.2006

@<TRIPOS>MOLECULE
ASD01478005
  83   86    0    0    0
SMALL
NO_CHARGES


@<TRIPOS>ATOM
   1 C1            -0.5113     1.5123    -1.8903 C.3     
   2 C2             1.6249     2.2411    -2.6660 C.2     
   3 O3             0.7758     2.1305    -1.6270 O.3     
   4 N4             2.8360     2.8054    -2.4895 N.am    
   5 O5             1.2992     1.8322    -3.7629 O.2     
   6 C6             3.4428     4.2006    -4.4043 C.3     
   7 C7             3.7599     2.9257    -3.6201 C.3     
   8 C8             5.1971     2.9913    -3.0995 C.3     
   9 C9             6.1682     2.9913    -4.2818 C.3     
  10 N10            7.5441     2.9219    -3.7836 N.am    
  11 S11            8.5767     4.1942    -4.0233 S.o2    
  12 C12            8.4074     5.2711    -2.6390 C.ar    
  13 C13            9.2092     5.0960    -1.5262 C.ar    
  14 C14            9.0784     5.9390    -0.4397 C.ar    
  15 C15            8.1417     6.9620    -0.4657 C.ar    
  16 C16            7.3385     7.1356    -1.5834 C.ar    
  17 C17            7.4770     6.2934    -2.6696 C.ar    
  18 O18            9.8923     3.6610    -3.9584 O.2     
  19 O19            8.0814     4.9064    -5.1487 O.2     
  20 C20            8.0066     1.7269    -3.0734 C.3     
  21 C21            8.0543     0.5441    -4.0427 C.3     
  22 C22            9.0769     0.8285    -5.1446 C.3     
  23 C23            8.4606    -0.7209    -3.2840 C.3     
  24 O24            5.3738     4.1874    -2.3380 O.3     
  25 C25           -0.4083     0.0206    -1.6687 C.3     
  26 O26           -1.2226    -0.6317    -2.6358 O.3     
  27 C27           -2.5562    -0.8572    -2.3437 C.3     
  28 C28           -3.2216     0.5072    -2.1192 C.3     
  29 C29           -2.7459     1.1430    -0.8381 C.3     
  30 C30           -1.5744     2.1058    -0.9330 C.3     
  31 C31           -4.7390     0.3313    -1.8674 C.3     
  32 O32           -5.0848     1.5311    -1.1331 O.3     
  33 C33           -3.9924     1.8102    -0.2339 C.3     
  34 C34            2.0723     4.0839    -5.0200 C.ar    
  35 C35            0.9610     4.5148    -4.3197 C.ar    
  36 C36           -0.2961     4.4077    -4.8845 C.ar    
  37 C37           -0.4420     3.8702    -6.1497 C.ar    
  38 C38            0.6694     3.4402    -6.8503 C.ar    
  39 C39            1.9270     3.5513    -6.2873 C.ar    
  40 O40            8.0109     7.7923     0.6022 O.3     
  41 C41            7.0261     8.8233     0.5055 C.3     
  42 H42           -0.8032     1.7068    -2.9224 H       
  43 H43            3.0960     3.1318    -1.6138 H       
  44 H44            3.4667     5.0571    -3.7304 H       
  45 H45            4.1844     4.3369    -5.1914 H       
  46 H46            3.6492     2.0603    -4.2734 H       
  47 H47            5.3944     2.1255    -2.4673 H       
  48 H48            5.9677     2.1283    -4.9167 H       
  49 H49            6.0368     3.9060    -4.8599 H       
  50 H50            9.9380     4.2992    -1.5064 H       
  51 H51            9.7047     5.8016     0.4294 H       
  52 H52            6.6085     7.9313    -1.6060 H       
  53 H53            6.8520     6.4282    -3.5400 H       
  54 H54            9.0033     1.9068    -2.6704 H       
  55 H55            7.3201     1.5007    -2.2575 H       
  56 H56            7.0702     0.3999    -4.4887 H       
  57 H57            8.7874     1.7297    -5.6851 H       
  58 H58           10.0610     0.9727    -4.6986 H       
  59 H59            9.1108    -0.0142    -5.8351 H       
  60 H60            7.7321    -0.9236    -2.4989 H       
  61 H61            8.4946    -1.5636    -3.9745 H       
  62 H62            9.4447    -0.5768    -2.8380 H       
  63 H63            5.2142     4.9994    -2.8383 H       
  64 H64            0.6276    -0.2976    -1.7858 H       
  65 H65           -0.7583    -0.2270    -0.6666 H       
  66 H66           -3.0357    -1.3693    -3.1779 H       
  67 H67           -2.6395    -1.4620    -1.4407 H       
  68 H68           -3.0338     1.1669    -2.9663 H       
  69 H69           -2.4586     0.3390    -0.1604 H       
  70 H70           -1.1371     2.2470     0.0554 H       
  71 H71           -1.9203     3.0640    -1.3208 H       
  72 H72           -5.2839     0.2853    -2.8102 H       
  73 H73           -4.9300    -0.5576    -1.2662 H       
  74 H74           -4.2015     1.3896     0.7497 H       
  75 H75           -3.8390     2.8865    -0.1554 H       
  76 H76            1.0750     4.9347    -3.3313 H       
  77 H77           -1.1644     4.7437    -4.3371 H       
  78 H78           -1.4243     3.7859    -6.5906 H       
  79 H79            0.5554     3.0199    -7.8386 H       
  80 H80            2.7957     3.2187    -6.8361 H       
  81 H81            6.0433     8.3746     0.3612 H       
  82 H82            7.0255     9.4124     1.4226 H       
  83 H83            7.2583     9.4694    -0.3412 H       
@<TRIPOS>BOND
   1    1   25 1
   2    1    3 1
   3    1   30 1
   4    1   42 1
   5    2    3 1
   6    2    4 am
   7    2    5 2
   8    4    7 1
   9    4   43 1
  10    6    7 1
  11    6   34 1
  12    6   44 1
  13    6   45 1
  14    7    8 1
  15    7   46 1
  16    8    9 1
  17    8   24 1
  18    8   47 1
  19    9   10 1
  20    9   48 1
  21    9   49 1
  22   10   11 am
  23   10   20 1
  24   11   12 1
  25   11   18 2
  26   11   19 2
  27   12   13 ar
  28   12   17 ar
  29   13   14 ar
  30   13   50 1
  31   14   15 ar
  32   14   51 1
  33   15   16 ar
  34   15   40 1
  35   16   17 ar
  36   16   52 1
  37   17   53 1
  38   20   21 1
  39   20   54 1
  40   20   55 1
  41   21   22 1
  42   21   23 1
  43   21   56 1
  44   22   57 1
  45   22   58 1
  46   22   59 1
  47   23   60 1
  48   23   61 1
  49   23   62 1
  50   24   63 1
  51   25   26 1
  52   25   64 1
  53   25   65 1
  54   26   27 1
  55   27   28 1
  56   27   66 1
  57   27   67 1
  58   28   29 1
  59   28   31 1
  60   28   68 1
  61   29   30 1
  62   29   33 1
  63   29   69 1
  64   30   70 1
  65   30   71 1
  66   31   32 1
  67   31   72 1
  68   31   73 1
  69   32   33 1
  70   33   74 1
  71   33   75 1
  72   34   35 ar
  73   34   39 ar
  74   35   36 ar
  75   35   76 1
  76   36   37 ar
  77   36   77 1
  78   37   38 ar
  79   37   78 1
  80   38   39 ar
  81   38   79 1
  82   39   80 1
  83   40   41 1
  84   41   81 1
  85   41   82 1
  86   41   83 1

#	End of record

