#	Name: ASD00843552
#	Creating user name:	WinNT
#	Creation time:	15. 06. 2019 18:47

#	Modifying user name:	WinNT
#	Modification time:	15. 06. 2019 18:47

#	Program:	/corina/corina34_cracker 3.40 0067  02.08.2006

@<TRIPOS>MOLECULE
ASD00843552
  90   95    0    0    0
SMALL
NO_CHARGES


@<TRIPOS>ATOM
   1 F1             5.5956    -2.6300    -1.9628 F       
   2 N2             0.8290     1.0237    -0.4939 N.ar    
   3 C3             0.9969    -0.2718    -0.6999 C.ar    
   4 C4             0.8359    -1.1804     0.3385 C.ar    
   5 C5             0.4965    -0.7126     1.5958 C.ar    
   6 C6             0.3294     0.6545     1.7708 C.ar    
   7 C7             0.5053     1.4997     0.6936 C.ar    
   8 C8             1.0278    -2.6558     0.0989 C.3     
   9 C9             0.6621    -3.4460     1.3371 C.2     
  10 C10            0.1919    -3.1163    -1.0970 C.3     
  11 C11           -1.2487    -2.7297    -0.8815 C.2     
  12 N12           -2.1917    -3.1288    -1.7578 N.am    
  13 O13           -1.5594    -2.0596     0.0804 O.2     
  14 C14           -3.5840    -2.6727    -1.6281 C.3     
  15 C15           -4.0403    -2.1117    -2.9791 C.3     
  16 N16           -3.8108    -3.1166    -4.0258 N.3     
  17 C17           -2.3803    -3.4173    -4.1712 C.3     
  18 C18           -1.8547    -4.0270    -2.8726 C.3     
  19 N19           -4.3850    -2.6908    -5.2919 N.3     
  20 C20           -4.1554    -3.6961    -6.3389 C.3     
  21 C21           -4.8417    -3.2483    -7.6316 C.3     
  22 N22           -4.3109    -1.9393    -8.0369 N.3     
  23 C23           -4.5406    -0.9340    -6.9898 C.3     
  24 C24           -3.8543    -1.3817    -5.6972 C.3     
  25 C25           -4.8912    -1.5091    -9.3160 C.3     
  26 O26           -0.4262    -3.4843     1.8713 O.2     
  27 N27            1.7683    -4.0973     1.7332 N.am    
  28 C28            2.4902    -2.9708    -0.1208 C.ar    
  29 C29            2.8598    -3.8408     0.8998 C.ar    
  30 C30            3.3985    -2.5661    -1.0741 C.ar    
  31 C31            4.7034    -3.0249    -1.0283 C.ar    
  32 C32            5.0930    -3.9001    -0.0094 C.ar    
  33 C33            4.1683    -4.3062     0.9524 C.ar    
  34 C34            1.4239    -6.7151     2.5096 C.ar    
  35 C35            0.1552    -6.9846     2.0178 C.ar    
  36 C36            2.3702    -7.7204     2.5647 C.ar    
  37 C37            2.0535    -8.9938     2.1297 C.ar    
  38 C38            0.7895    -9.2651     1.6390 C.ar    
  39 C39           -0.1602    -8.2637     1.5823 C.ar    
  40 H40            0.5445   -10.2608     1.2998 H       
  41 O41           -0.7774    -5.9976     1.9630 O.3     
  42 C42           -2.0624    -6.3474     1.4450 C.3     
  43 C43           -2.9711    -5.1165     1.4613 C.3     
  44 C44            6.4411    -4.3799     0.0458 C.1     
  45 N45            7.5105    -4.7606     0.0897 N.1     
  46 O46            1.3292    -0.7178    -1.9375 O.3     
  47 C47            1.4152     0.2584    -2.9775 C.3     
  48 C48            1.9021    -0.4095    -4.2650 C.3     
  49 F49            3.1220    -1.0509    -4.0250 F       
  50 F50            0.9566    -1.3494    -4.6891 F       
  51 S51            1.8307    -5.0904     3.0569 S.o2    
  52 O52            3.1918    -5.1328     3.4630 O.2     
  53 O53            0.7757    -4.6805     3.9162 O.2     
  54 H54            0.3644    -1.3954     2.4221 H       
  55 H55            0.0642     1.0524     2.7391 H       
  56 H56            0.3768     2.5640     0.8245 H       
  57 H57            0.5637    -2.6410    -2.0047 H       
  58 H58            0.2665    -4.1991    -1.1970 H       
  59 H59           -4.2197    -3.5124    -1.3468 H       
  60 H60           -3.6448    -1.8933    -0.8686 H       
  61 H61           -5.1023    -1.8707    -2.9329 H       
  62 H62           -3.4721    -1.2104    -3.2093 H       
  63 H63           -2.2383    -4.1232    -4.9895 H       
  64 H64           -1.8352    -2.4979    -4.3848 H       
  65 H65           -0.7729    -4.1455    -2.9352 H       
  66 H66           -2.3232    -4.9973    -2.7077 H       
  67 H67           -3.0846    -3.8014    -6.5133 H       
  68 H68           -4.5682    -4.6534    -6.0208 H       
  69 H69           -4.6484    -3.9783    -8.4176 H       
  70 H70           -5.9159    -3.1693    -7.4645 H       
  71 H71           -4.1277     0.0233    -7.3080 H       
  72 H72           -5.6114    -0.8286    -6.8154 H       
  73 H73           -4.0476    -0.6517    -4.9111 H       
  74 H74           -2.7801    -1.4607    -5.8643 H       
  75 H75           -5.9738    -1.4315    -9.2162 H       
  76 H76           -4.4813    -0.5376    -9.5925 H       
  77 H77           -4.6489    -2.2388   -10.0886 H       
  78 H78            3.0917    -1.8901    -1.8585 H       
  79 H79            4.4695    -4.9821     1.7390 H       
  80 H80            3.3581    -7.5111     2.9476 H       
  81 H81            2.7948    -9.7781     2.1729 H       
  82 H82           -1.1475    -8.4762     1.1996 H       
  83 H83           -1.9560    -6.7069     0.4215 H       
  84 H84           -2.5017    -7.1315     2.0617 H       
  85 H85           -3.0775    -4.7570     2.4848 H       
  86 H86           -2.5318    -4.3324     0.8446 H       
  87 H87           -3.9513    -5.3833     1.0662 H       
  88 H88            0.4320     0.6979    -3.1455 H       
  89 H89            2.1172     1.0395    -2.6854 H       
  90 H90            2.0352     0.3466    -5.0387 H       
@<TRIPOS>BOND
   1    1   31 1
   2    2    3 ar
   3    2    7 ar
   4    3    4 ar
   5    3   46 1
   6    4    5 ar
   7    4    8 1
   8    5    6 ar
   9    5   54 1
  10    6    7 ar
  11    6   55 1
  12    7   56 1
  13    8    9 1
  14    8   10 1
  15    8   28 1
  16    9   26 2
  17    9   27 am
  18   10   11 1
  19   10   57 1
  20   10   58 1
  21   11   12 am
  22   11   13 2
  23   12   14 1
  24   12   18 1
  25   14   15 1
  26   14   59 1
  27   14   60 1
  28   15   16 1
  29   15   61 1
  30   15   62 1
  31   16   17 1
  32   16   19 1
  33   17   18 1
  34   17   63 1
  35   17   64 1
  36   18   65 1
  37   18   66 1
  38   19   20 1
  39   19   24 1
  40   20   21 1
  41   20   67 1
  42   20   68 1
  43   21   22 1
  44   21   69 1
  45   21   70 1
  46   22   23 1
  47   22   25 1
  48   23   24 1
  49   23   71 1
  50   23   72 1
  51   24   73 1
  52   24   74 1
  53   25   75 1
  54   25   76 1
  55   25   77 1
  56   27   51 am
  57   27   29 1
  58   28   29 ar
  59   28   30 ar
  60   29   33 ar
  61   30   31 ar
  62   30   78 1
  63   31   32 ar
  64   32   33 ar
  65   32   44 1
  66   33   79 1
  67   34   35 ar
  68   34   36 ar
  69   34   51 1
  70   35   41 1
  71   35   39 ar
  72   36   37 ar
  73   36   80 1
  74   37   38 ar
  75   37   81 1
  76   38   39 ar
  77   38   40 1
  78   39   82 1
  79   41   42 1
  80   42   43 1
  81   42   83 1
  82   42   84 1
  83   43   85 1
  84   43   86 1
  85   43   87 1
  86   44   45 3
  87   46   47 1
  88   47   48 1
  89   47   88 1
  90   47   89 1
  91   48   49 1
  92   48   50 1
  93   48   90 1
  94   51   52 2
  95   51   53 2

#	End of record

