#	Name: ASD01148530
#	Creating user name:	WinNT
#	Creation time:	15. 06. 2019 19:02

#	Modifying user name:	WinNT
#	Modification time:	15. 06. 2019 19:02

#	Program:	/corina/corina34_cracker 3.40 0067  02.08.2006

@<TRIPOS>MOLECULE
ASD01148530
  59   62    0    0    0
SMALL
NO_CHARGES


@<TRIPOS>ATOM
   1 C1            -0.0180     1.4349     0.0450 C.ar    
   2 C2            -0.0166     0.0527     0.0405 C.ar    
   3 C3             1.1813    -0.6373     0.0175 C.ar    
   4 C4             2.3774     0.0551    -0.0013 C.ar    
   5 C5             2.3760     1.4376     0.0023 C.ar    
   6 C6             1.1785     2.1274     0.0267 C.ar    
   7 C7             3.6801     2.1925    -0.0173 C.3     
   8 O8             4.6904     1.4586    -0.7386 O.3     
   9 C9             3.5611     3.4816    -0.8647 C.3     
  10 C10            4.0481     3.0268    -2.2273 C.2     
  11 N11            4.6608     1.8982    -2.0821 N.2     
  12 C12            3.8552     3.7470    -3.4976 C.ar    
  13 C13            4.3787     3.1929    -4.7438 C.ar    
  14 C14            3.1700     4.9538    -3.5193 C.ar    
  15 C15            2.9743     5.6515    -4.6980 C.ar    
  16 C16            3.4548     5.1746    -5.9097 C.ar    
  17 C17            4.1787     3.9064    -5.9492 C.ar    
  18 C18            3.2309     5.9402    -7.1497 C.2     
  19 O19            3.7432     5.5753    -8.1904 O.2     
  20 N20            2.4585     7.0445    -7.1297 N.am    
  21 C21            4.6807     3.3869    -7.1492 C.ar    
  22 C22            5.0708     1.9754    -4.7702 C.ar    
  23 C23            4.1459     2.5120     1.4046 C.3     
  24 F24            4.3107     1.3211     2.1201 F       
  25 F25            5.3644     3.1975     1.3532 F       
  26 F26            3.1887     3.3096     2.0408 F       
  27 C27            2.2361     7.8052    -8.3618 C.3     
  28 C28            1.3441     8.9843    -8.0700 C.2     
  29 N29            1.0016     9.8315    -9.0607 N.am    
  30 O30            0.9346     9.1709    -6.9438 O.2     
  31 C31            0.1345    10.9778    -8.7771 C.3     
  32 C32           -0.0978    11.7723   -10.0638 C.3     
  33 F33           -0.7091    10.9495   -11.0160 F       
  34 F34           -0.9259    12.8669    -9.7930 F       
  35 F35            1.1290    12.2269   -10.5591 F       
  36 C36            5.5421     1.4945    -5.9555 C.ar    
  37 C37            5.3501     2.1993    -7.1408 C.ar    
  38 C38            1.1828    -2.1443     0.0135 C.3     
  39 F39           -0.1355    -2.6120     0.0356 F       
  40 F40            1.8225    -2.6069    -1.1414 F       
  41 F41            1.8628    -2.6129     1.1428 F       
  42 H42           -0.9537     1.9739     0.0584 H       
  43 H43           -0.9512    -0.4882     0.0552 H       
  44 H44            3.3131    -0.4840    -0.0186 H       
  45 H45            1.1775     3.2074     0.0299 H       
  46 H46            2.5251     3.8166    -0.9160 H       
  47 H47            4.2035     4.2671    -0.4665 H       
  48 H48            2.7807     5.3569    -2.5960 H       
  49 H49            2.4356     6.5873    -4.6748 H       
  50 H50            2.0499     7.3356    -6.2995 H       
  51 H51            4.5380     3.9237    -8.0754 H       
  52 H52            5.2304     1.4213    -3.8570 H       
  53 H53            3.1920     8.1594    -8.7477 H       
  54 H54            1.7599     7.1641    -9.1036 H       
  55 H55            1.3291     9.6823    -9.9614 H       
  56 H56           -0.8214    10.6236    -8.3912 H       
  57 H57            0.6107    11.6189    -8.0352 H       
  58 H58            6.0757     0.5556    -5.9748 H       
  59 H59            5.7368     1.7996    -8.0666 H       
@<TRIPOS>BOND
   1    1    2 ar
   2    1    6 ar
   3    1   42 1
   4    2    3 ar
   5    2   43 1
   6    3    4 ar
   7    3   38 1
   8    4    5 ar
   9    4   44 1
  10    5    6 ar
  11    5    7 1
  12    6   45 1
  13    7    8 1
  14    7    9 1
  15    7   23 1
  16    8   11 1
  17    9   10 1
  18    9   46 1
  19    9   47 1
  20   10   11 2
  21   10   12 1
  22   12   13 ar
  23   12   14 ar
  24   13   22 ar
  25   13   17 ar
  26   14   15 ar
  27   14   48 1
  28   15   16 ar
  29   15   49 1
  30   16   17 ar
  31   16   18 1
  32   17   21 ar
  33   18   19 2
  34   18   20 am
  35   20   27 1
  36   20   50 1
  37   21   37 ar
  38   21   51 1
  39   22   36 ar
  40   22   52 1
  41   23   24 1
  42   23   25 1
  43   23   26 1
  44   27   28 1
  45   27   53 1
  46   27   54 1
  47   28   30 2
  48   28   29 am
  49   29   31 1
  50   29   55 1
  51   31   32 1
  52   31   56 1
  53   31   57 1
  54   32   33 1
  55   32   34 1
  56   32   35 1
  57   36   37 ar
  58   36   58 1
  59   37   59 1
  60   38   39 1
  61   38   40 1
  62   38   41 1

#	End of record

