#	Name: ASD01884109
#	Creating user name:	WinNT
#	Creation time:	15. 06. 2019 19:47

#	Modifying user name:	WinNT
#	Modification time:	15. 06. 2019 19:47

#	Program:	/corina/corina34_cracker 3.40 0067  02.08.2006

@<TRIPOS>MOLECULE
ASD01884109
  50   53    0    0    0
SMALL
NO_CHARGES


@<TRIPOS>ATOM
   1 C1            -0.4068     0.7381    -1.1129 C.2     
   2 C2             0.0021    -0.0041     0.0020 C.2     
   3 C3            -0.8269    -0.0443     1.1395 C.2     
   4 C4            -1.9994     0.6166     1.1695 C.2     
   5 N5            -2.4376     1.3509     0.1077 N.pl3   
   6 C6            -1.6856     1.4465    -1.0375 C.2     
   7 C7            -3.5562     2.0981    -0.1230 C.2     
   8 N8            -3.4571     2.5891    -1.3295 N.2     
   9 N9            -2.3556     2.2105    -1.8769 N.2     
  10 N10            1.2030    -0.6883    -0.0141 N.pl3   
  11 C11            1.2312    -2.1537     0.0880 C.3     
  12 C12            2.1626    -2.5501     1.2378 C.3     
  13 C13            3.5351    -1.9087     1.0215 C.3     
  14 C14            3.3932    -0.3849     1.0183 C.3     
  15 C15            2.4754     0.0357    -0.1397 C.3     
  16 C16           -4.6965     2.3164     0.8378 C.3     
  17 C17            4.4642    -2.3240     2.1329 C.ar    
  18 C18            5.6297    -3.0152     1.8406 C.ar    
  19 C19            6.4842    -3.3968     2.8677 C.ar    
  20 C20            6.1694    -3.0859     4.1779 C.ar    
  21 C21            5.0053    -2.3965     4.4651 C.ar    
  22 C22            4.1575    -2.0110     3.4439 C.ar    
  23 F23            7.6208    -4.0709     2.5867 F       
  24 C24            0.4052     0.8069    -2.2904 C.1     
  25 N25            1.0495     0.8614    -3.2244 N.1     
  26 O26            5.9358    -3.3196     0.5514 O.3     
  27 C27            6.7080    -2.3618    -0.1755 C.3     
  28 C28           -4.4141     3.5540     1.6918 C.3     
  29 F29           -4.2825     4.6729     0.8624 F       
  30 F30           -5.4727     3.7567     2.5837 F       
  31 F31           -3.2288     3.3642     2.4104 F       
  32 H32           -0.5171    -0.6153     2.0023 H       
  33 H33           -2.6098     0.5634     2.0589 H       
  34 H34            0.2261    -2.5255     0.2872 H       
  35 H35            1.6017    -2.5779    -0.8452 H       
  36 H36            1.7433    -2.2025     2.1820 H       
  37 H37            2.2678    -3.6347     1.2633 H       
  38 H38            3.9430    -2.2374     0.0656 H       
  39 H39            2.9623    -0.0576     1.9645 H       
  40 H40            4.3743     0.0716     0.8876 H       
  41 H41            2.9497    -0.2104    -1.0897 H       
  42 H42            2.2905     1.1087    -0.0882 H       
  43 H43           -5.6200     2.4643     0.2779 H       
  44 H44           -4.7991     1.4447     1.4840 H       
  45 H45            6.8326    -3.3818     4.9772 H       
  46 H46            4.7607    -2.1548     5.4889 H       
  47 H47            3.2491    -1.4728     3.6713 H       
  48 H48            6.8812    -2.7274    -1.1876 H       
  49 H49            6.1674    -1.4163    -0.2183 H       
  50 H50            7.6646    -2.2111     0.3249 H       
@<TRIPOS>BOND
   1    1    2 2
   2    1   24 1
   3    1    6 1
   4    2    3 1
   5    2   10 1
   6    3    4 2
   7    3   32 1
   8    4    5 1
   9    4   33 1
  10    5    6 1
  11    5    7 1
  12    6    9 2
  13    7    8 2
  14    7   16 1
  15    8    9 1
  16   10   11 1
  17   10   15 1
  18   11   12 1
  19   11   34 1
  20   11   35 1
  21   12   13 1
  22   12   36 1
  23   12   37 1
  24   13   14 1
  25   13   17 1
  26   13   38 1
  27   14   15 1
  28   14   39 1
  29   14   40 1
  30   15   41 1
  31   15   42 1
  32   16   28 1
  33   16   43 1
  34   16   44 1
  35   17   18 ar
  36   17   22 ar
  37   18   19 ar
  38   18   26 1
  39   19   20 ar
  40   19   23 1
  41   20   21 ar
  42   20   45 1
  43   21   22 ar
  44   21   46 1
  45   22   47 1
  46   24   25 3
  47   26   27 1
  48   27   48 1
  49   27   49 1
  50   27   50 1
  51   28   29 1
  52   28   30 1
  53   28   31 1

#	End of record

