#	Name: ASD04940005
#	Creating user name:	WinNT
#	Creation time:	15. 06. 2019 20:56

#	Modifying user name:	WinNT
#	Modification time:	15. 06. 2019 20:56

#	Program:	/corina/corina34_cracker 3.40 0067  02.08.2006

@<TRIPOS>MOLECULE
ASD04940005
  55   58    0    0    0
SMALL
NO_CHARGES


@<TRIPOS>ATOM
   1 C1            -0.5166     1.4934    -0.5183 C.ar    
   2 C2            -0.7035     0.1497    -0.6774 C.ar    
   3 C3             0.3736    -0.7243    -0.6164 C.ar    
   4 C4             1.6494    -0.2537    -0.3945 C.ar    
   5 C5             1.8643     1.1109    -0.2299 C.ar    
   6 C6             0.7692     1.9934    -0.2926 C.ar    
   7 N7             2.9916     1.8682     0.0004 N.pl3   
   8 C8             2.6499     3.1982     0.0853 C.2     
   9 C9             1.3115     3.3350    -0.0846 C.2     
  10 C10            3.5970     4.3083     0.3263 C.ar    
  11 C11            4.5331     4.2195     1.3573 C.ar    
  12 C12            5.4141     5.2584     1.5765 C.ar    
  13 C13            5.3704     6.3867     0.7771 C.ar    
  14 C14            4.4447     6.4810    -0.2468 C.ar    
  15 C15            3.5620     5.4467    -0.4801 C.ar    
  16 C16            0.5317     4.6244    -0.0630 C.3     
  17 C17            0.0529     4.9070     1.3624 C.3     
  18 N18           -0.8142     6.0928     1.3616 N.3     
  19 C19           -1.4814     6.2579     2.6598 C.3     
  20 C20           -2.5389     7.3259     2.5489 C.2     
  21 N21           -3.2844     7.6502     3.6238 N.am    
  22 C22           -0.0565     7.2988     1.0019 C.3     
  23 O23           -2.7189     7.8936     1.4924 O.2     
  24 C24           -4.3227     8.6896     3.5398 C.3     
  25 C25           -5.6248     8.1198     4.1141 C.3     
  26 O26           -5.3700     7.5805     5.4133 O.3     
  27 C27           -4.4471     6.4888     5.4232 C.3     
  28 C28           -3.0885     6.9711     4.9145 C.3     
  29 H29           -1.3587     2.1676    -0.5711 H       
  30 H30           -1.6971    -0.2360    -0.8518 H       
  31 H31            0.2096    -1.7841    -0.7438 H       
  32 H32            2.4801    -0.9423    -0.3481 H       
  33 H33            3.8912     1.5166     0.0896 H       
  34 H34            4.5677     3.3395     1.9825 H       
  35 H35            6.1391     5.1908     2.3741 H       
  36 H36            6.0618     7.1975     0.9532 H       
  37 H37            4.4157     7.3645    -0.8673 H       
  38 H38            2.8425     5.5198    -1.2823 H       
  39 H39            1.1702     5.4408    -0.4004 H       
  40 H40           -0.3296     4.5391    -0.7255 H       
  41 H41           -0.5060     4.0485     1.7349 H       
  42 H42            0.9140     5.0870     2.0060 H       
  43 H43           -1.9456     5.3160     2.9522 H       
  44 H44           -0.7475     6.5499     3.4110 H       
  45 H45            0.3695     7.1767     0.0061 H       
  46 H46           -0.7223     8.1618     1.0089 H       
  47 H47            0.7455     7.4528     1.7238 H       
  48 H48           -4.0170     9.5615     4.1182 H       
  49 H49           -4.4742     8.9739     2.4985 H       
  50 H50           -6.3679     8.9137     4.1888 H       
  51 H51           -5.9973     7.3319     3.4595 H       
  52 H52           -4.3428     6.1093     6.4396 H       
  53 H53           -4.8153     5.6949     4.7733 H       
  54 H54           -2.4230     6.1179     4.7830 H       
  55 H55           -2.6563     7.6670     5.6336 H       
@<TRIPOS>BOND
   1    1    2 ar
   2    1    6 ar
   3    1   29 1
   4    2    3 ar
   5    2   30 1
   6    3    4 ar
   7    3   31 1
   8    4    5 ar
   9    4   32 1
  10    5    7 1
  11    5    6 ar
  12    6    9 1
  13    7    8 1
  14    7   33 1
  15    8    9 2
  16    8   10 1
  17    9   16 1
  18   10   11 ar
  19   10   15 ar
  20   11   12 ar
  21   11   34 1
  22   12   13 ar
  23   12   35 1
  24   13   14 ar
  25   13   36 1
  26   14   15 ar
  27   14   37 1
  28   15   38 1
  29   16   17 1
  30   16   39 1
  31   16   40 1
  32   17   18 1
  33   17   41 1
  34   17   42 1
  35   18   19 1
  36   18   22 1
  37   19   20 1
  38   19   43 1
  39   19   44 1
  40   20   21 am
  41   20   23 2
  42   21   24 1
  43   21   28 1
  44   22   45 1
  45   22   46 1
  46   22   47 1
  47   24   25 1
  48   24   48 1
  49   24   49 1
  50   25   26 1
  51   25   50 1
  52   25   51 1
  53   26   27 1
  54   27   28 1
  55   27   52 1
  56   27   53 1
  57   28   54 1
  58   28   55 1

#	End of record

