#	Name: ASD09740429
#	Creating user name:	WinNT
#	Creation time:	15. 06. 2019 21:23

#	Modifying user name:	WinNT
#	Modification time:	15. 06. 2019 21:23

#	Program:	/corina/corina34_cracker 3.40 0067  02.08.2006

@<TRIPOS>MOLECULE
ASD09740429
  77   81    0    0    0
SMALL
NO_CHARGES


@<TRIPOS>ATOM
   1 N1            -0.4530     1.2733     1.7489 N.2     
   2 C2            -0.4481    -0.0352     1.8048 C.2     
   3 C3             0.6360     1.8894     2.1148 C.2     
   4 S4             1.8418     0.6994     2.5974 S.3     
   5 C5             0.7010    -0.5960     2.2410 C.2     
   6 C6             0.8288     3.3543     2.1227 C.ar    
   7 C7            -0.2043     4.1947     1.7163 C.ar    
   8 C8             2.0470     3.8970     2.5437 C.ar    
   9 C9             2.2321     5.2623     2.5535 C.ar    
  10 C10            1.2111     6.1093     2.1456 C.ar    
  11 C11           -0.0167     5.5763     1.7258 C.ar    
  12 O12            1.3987     7.4528     2.1577 O.3     
  13 C13            2.7078     7.9221     2.4863 C.3     
  14 C14            2.9166     9.3135     1.8852 C.3     
  15 C15            2.8563     7.9961     4.0072 C.3     
  16 C16           -1.0720     6.4477     1.3044 C.1     
  17 N17           -1.9091     7.1390     0.9701 N.1     
  18 C18            0.9566    -2.0437     2.3935 C.ar    
  19 C19            2.1109    -2.6122     1.8461 C.ar    
  20 C20            2.3438    -3.9638     1.9924 C.ar    
  21 C21            1.4338    -4.7523     2.6801 C.ar    
  22 C22            0.2908    -4.1953     3.2221 C.ar    
  23 C23            0.0497    -2.8434     3.0886 C.ar    
  24 C24            3.2405    -1.9782     1.0634 C.3     
  25 C25            4.3964    -2.9993     1.1244 C.3     
  26 C26            3.6473    -4.3348     1.3176 C.3     
  27 N27            4.4246    -5.2346     2.1733 N.am    
  28 S28            4.4013    -6.8670     1.8956 S.o2    
  29 C29            5.1819    -7.0607     0.2696 C.3     
  30 C30            5.2204    -8.5439    -0.1041 C.3     
  31 O31            5.2310    -7.4077     2.9146 O.2     
  32 O32            3.0195    -7.1911     1.8272 O.2     
  33 N33            5.7382    -8.6911    -1.4709 N.3     
  34 C34            5.8881   -10.1180    -1.8301 C.3     
  35 C35            7.1196   -10.2257    -2.7483 C.3     
  36 C36            7.6691    -8.7848    -2.8576 C.3     
  37 C37            7.0945    -8.0981    -1.5931 C.3     
  38 N38            9.1378    -8.7848    -2.8272 N.3     
  39 C39            9.6878    -9.5384    -3.9619 C.3     
  40 C40            9.6638    -7.4135    -2.8014 C.3     
  41 H41           -1.3060    -0.6267     1.5213 H       
  42 H42           -1.1473     3.7780     1.3947 H       
  43 H43            2.8455     3.2435     2.8627 H       
  44 H44            3.1752     5.6750     2.8801 H       
  45 H45            3.4519     7.2361     2.0815 H       
  46 H46            2.1725     9.9995     2.2899 H       
  47 H47            3.9151     9.6715     2.1358 H       
  48 H48            2.8108     9.2608     0.8016 H       
  49 H49            2.7076     7.0048     4.4355 H       
  50 H50            3.8548     8.3540     4.2579 H       
  51 H51            2.1122     8.6821     4.4120 H       
  52 H52            1.6194    -5.8103     2.7929 H       
  53 H53           -0.4118    -4.8183     3.7556 H       
  54 H54           -0.8433    -2.4078     3.5120 H       
  55 H55            2.9374    -1.8113     0.0297 H       
  56 H56            3.5409    -1.0385     1.5267 H       
  57 H57            4.9604    -3.0025     0.1917 H       
  58 H58            5.0496    -2.7950     1.9728 H       
  59 H59            3.4537    -4.8029     0.3524 H       
  60 H60            4.9530    -4.8742     2.9026 H       
  61 H61            4.6071    -6.5127    -0.4770 H       
  62 H62            6.1982    -6.6686     0.3055 H       
  63 H63            5.8703    -9.0767     0.5900 H       
  64 H64            4.2137    -8.9584    -0.0503 H       
  65 H65            6.0428   -10.7132    -0.9301 H       
  66 H66            4.9995   -10.4633    -2.3586 H       
  67 H67            7.8669   -10.8829    -2.3034 H       
  68 H68            6.8274   -10.5948    -3.7314 H       
  69 H69            7.3009    -8.2992    -3.7613 H       
  70 H70            7.0313    -7.0194    -1.7363 H       
  71 H71            7.6988    -8.3363    -0.7178 H       
  72 H72            9.3576    -9.0824    -4.8952 H       
  73 H73           10.7767    -9.5224    -3.9150 H       
  74 H74            9.3373   -10.5696    -3.9173 H       
  75 H75            9.2958    -6.8998    -1.9132 H       
  76 H76           10.7531    -7.4425    -2.7791 H       
  77 H77            9.3326    -6.8805    -3.6926 H       
@<TRIPOS>BOND
   1    1    2 1
   2    1    3 2
   3    2    5 2
   4    2   41 1
   5    3    4 1
   6    3    6 1
   7    4    5 1
   8    5   18 1
   9    6    7 ar
  10    6    8 ar
  11    7   11 ar
  12    7   42 1
  13    8    9 ar
  14    8   43 1
  15    9   10 ar
  16    9   44 1
  17   10   11 ar
  18   10   12 1
  19   11   16 1
  20   12   13 1
  21   13   14 1
  22   13   15 1
  23   13   45 1
  24   14   46 1
  25   14   47 1
  26   14   48 1
  27   15   49 1
  28   15   50 1
  29   15   51 1
  30   16   17 3
  31   18   19 ar
  32   18   23 ar
  33   19   20 ar
  34   19   24 1
  35   20   21 ar
  36   20   26 1
  37   21   22 ar
  38   21   52 1
  39   22   23 ar
  40   22   53 1
  41   23   54 1
  42   24   25 1
  43   24   55 1
  44   24   56 1
  45   25   26 1
  46   25   57 1
  47   25   58 1
  48   26   27 1
  49   26   59 1
  50   27   28 am
  51   27   60 1
  52   28   29 1
  53   28   31 2
  54   28   32 2
  55   29   30 1
  56   29   61 1
  57   29   62 1
  58   30   33 1
  59   30   63 1
  60   30   64 1
  61   33   34 1
  62   33   37 1
  63   34   35 1
  64   34   65 1
  65   34   66 1
  66   35   36 1
  67   35   67 1
  68   35   68 1
  69   36   37 1
  70   36   38 1
  71   36   69 1
  72   37   70 1
  73   37   71 1
  74   38   39 1
  75   38   40 1
  76   39   72 1
  77   39   73 1
  78   39   74 1
  79   40   75 1
  80   40   76 1
  81   40   77 1

#	End of record

