#	Name: ASD01911282
#	Creating user name:	WinNT
#	Creation time:	15. 06. 2019 19:57

#	Modifying user name:	WinNT
#	Modification time:	15. 06. 2019 19:57

#	Program:	/corina/corina34_cracker 3.40 0067  02.08.2006

@<TRIPOS>MOLECULE
ASD01911282
  38   40    0    0    0
SMALL
NO_CHARGES


@<TRIPOS>ATOM
   1 N1            -0.0070     1.4095    -0.0032 N.2     
   2 N2            -0.0070     0.0095    -0.0452 N.pl3   
   3 C3             1.2419     1.8244     0.0383 C.2     
   4 C4             2.0818     0.6982     0.0241 C.2     
   5 C5             1.2900    -0.4113    -0.0276 C.2     
   6 C6             1.7541    -1.8163    -0.0590 C.ar    
   7 C7             1.6864     3.2397     0.0904 C.ar    
   8 C8             0.7462     4.2678     0.0991 C.ar    
   9 C9            -1.1915    -0.8509    -0.0981 C.3     
  10 C10           -1.6291    -1.0157    -1.5307 C.2     
  11 O11           -2.7015    -1.7684    -1.8226 O.3     
  12 O12           -1.0146    -0.4704    -2.4166 O.2     
  13 C13           -3.0652    -1.8825    -3.2236 C.3     
  14 C14            0.9289    -2.8147    -0.5760 C.ar    
  15 C15            1.1650     5.5821     0.1475 C.ar    
  16 C16            2.5153     5.8793     0.1873 C.ar    
  17 C17            3.4529     4.8624     0.1789 C.ar    
  18 C18            3.0450     3.5445     0.1364 C.ar    
  19 C19            1.3681    -4.1239    -0.6028 C.ar    
  20 C20            2.6244    -4.4452    -0.1179 C.ar    
  21 C21            3.4466    -3.4584     0.3960 C.ar    
  22 C22            3.0210    -2.1463     0.4232 C.ar    
  23 Cl23           0.3429    -5.3689    -1.2453 Cl      
  24 H24            3.1615     0.7090     0.0492 H       
  25 H25           -0.3083     4.0369     0.0677 H       
  26 H26           -0.9506    -1.8271     0.3228 H       
  27 H27           -1.9973    -0.3958     0.4778 H       
  28 H28           -3.9465    -2.5166    -3.3198 H       
  29 H29           -3.2843    -0.8927    -3.6240 H       
  30 H30           -2.2376    -2.3240    -3.7790 H       
  31 H31           -0.0513    -2.5648    -0.9541 H       
  32 H32            0.4371     6.3799     0.1540 H       
  33 H33            2.8387     6.9090     0.2248 H       
  34 H34            4.5060     5.1000     0.2098 H       
  35 H35            3.7779     2.7513     0.1299 H       
  36 H36            2.9637    -5.4702    -0.1405 H       
  37 H37            4.4256    -3.7151     0.7729 H       
  38 H38            3.6642    -1.3772     0.8247 H       
@<TRIPOS>BOND
   1    1    2 1
   2    1    3 2
   3    2    9 1
   4    2    5 1
   5    3    4 1
   6    3    7 1
   7    4    5 2
   8    4   24 1
   9    5    6 1
  10    6   14 ar
  11    6   22 ar
  12    7    8 ar
  13    7   18 ar
  14    8   15 ar
  15    8   25 1
  16    9   10 1
  17    9   26 1
  18    9   27 1
  19   10   11 1
  20   10   12 2
  21   11   13 1
  22   13   28 1
  23   13   29 1
  24   13   30 1
  25   14   19 ar
  26   14   31 1
  27   15   16 ar
  28   15   32 1
  29   16   17 ar
  30   16   33 1
  31   17   18 ar
  32   17   34 1
  33   18   35 1
  34   19   20 ar
  35   19   23 1
  36   20   21 ar
  37   20   36 1
  38   21   22 ar
  39   21   37 1
  40   22   38 1

#	End of record

