#	Name: ASD01811218
#	Creating user name:	WinNT
#	Creation time:	15. 06. 2019 19:26

#	Modifying user name:	WinNT
#	Modification time:	15. 06. 2019 19:26

#	Program:	/corina/corina34_cracker 3.40 0067  02.08.2006

@<TRIPOS>MOLECULE
ASD01811218
  56   59    0    0    0
SMALL
NO_CHARGES


@<TRIPOS>ATOM
   1 C1             0.4034     0.8574     1.7668 C.2     
   2 C2             0.2069    -0.3017     0.8721 C.ar    
   3 C3             1.1739    -0.6192    -0.0856 C.ar    
   4 C4             0.9916    -1.7020    -0.9223 C.ar    
   5 C5            -0.1460    -2.4783    -0.8194 C.ar    
   6 C6            -1.1207    -2.1720     0.1329 C.ar    
   7 C7            -0.9405    -1.0844     0.9849 C.ar    
   8 O8             1.5225     1.1652     2.1251 O.2     
   9 O9            -0.6579     1.5763     2.1807 O.3     
  10 C10           -0.3363    -3.6583    -1.7372 C.3     
  11 C11            2.4182     0.2225    -0.2055 C.3     
  12 C12            3.7083    -0.5294     0.1621 C.3     
  13 C13            4.3731     0.1926    -1.0218 C.3     
  14 C14            2.9692     0.3068    -1.6388 C.3     
  15 C15           -2.3382    -3.0041     0.2412 C.2     
  16 O16           -2.2442    -4.2149     0.2909 O.2     
  17 N17           -3.5520    -2.4200     0.2846 N.am    
  18 C18           -4.7605    -3.2217     0.5200 C.3     
  19 C19           -5.7660    -2.9387    -0.6006 C.3     
  20 C20           -6.0182    -1.4316    -0.6856 C.3     
  21 C21           -4.7092    -0.7116    -1.0179 C.3     
  22 C22           -3.6912    -0.9686     0.1035 C.3     
  23 C23           -7.0326    -1.1524    -1.7645 C.ar    
  24 C24           -8.2241    -0.5262    -1.4440 C.ar    
  25 C25           -9.1571    -0.2675    -2.4266 C.ar    
  26 C26           -8.8967    -0.6389    -3.7472 C.ar    
  27 C27           -7.6921    -1.2701    -4.0636 C.ar    
  28 C28           -6.7659    -1.5183    -3.0719 C.ar    
  29 C29           -9.8609    -0.3740    -4.7723 C.1     
  30 N30          -10.6258    -0.1639    -5.5855 N.1     
  31 H31            1.7417    -1.9429    -1.6609 H       
  32 H32           -1.6887    -0.8464     1.7264 H       
  33 H33           -0.4795     2.3257     2.7653 H       
  34 H34            0.1534    -4.5335    -1.3101 H       
  35 H35           -1.4012    -3.8591    -1.8547 H       
  36 H36            0.1011    -3.4360    -2.7104 H       
  37 H37            2.3227     1.1913     0.2847 H       
  38 H38            4.1176    -0.2461     1.1319 H       
  39 H39            3.6370    -1.6091     0.0308 H       
  40 H40            4.8127     1.1539    -0.7559 H       
  41 H41            5.0514    -0.4404    -1.5940 H       
  42 H42            2.6957    -0.5443    -2.2624 H       
  43 H43            2.7817     1.2652    -2.1229 H       
  44 H44           -4.5022    -4.2806     0.5204 H       
  45 H45           -5.1980    -2.9498     1.4807 H       
  46 H46           -5.3633    -3.2942    -1.5490 H       
  47 H47           -6.7031    -3.4528    -0.3870 H       
  48 H48           -6.3975    -1.0723     0.2710 H       
  49 H49           -4.3165    -1.0881    -1.9624 H       
  50 H50           -4.8942     0.3594    -1.1014 H       
  51 H51           -4.0432    -0.5167     1.0309 H       
  52 H52           -2.7272    -0.5405    -0.1710 H       
  53 H53           -8.4242    -0.2395    -0.4221 H       
  54 H54          -10.0870     0.2207    -2.1749 H       
  55 H55           -7.4844    -1.5599    -5.0831 H       
  56 H56           -5.8320    -2.0027    -3.3159 H       
@<TRIPOS>BOND
   1    1    2 1
   2    1    8 2
   3    1    9 1
   4    2    3 ar
   5    2    7 ar
   6    3    4 ar
   7    3   11 1
   8    4    5 ar
   9    4   31 1
  10    5    6 ar
  11    5   10 1
  12    6    7 ar
  13    6   15 1
  14    7   32 1
  15    9   33 1
  16   10   34 1
  17   10   35 1
  18   10   36 1
  19   11   12 1
  20   11   14 1
  21   11   37 1
  22   12   13 1
  23   12   38 1
  24   12   39 1
  25   13   14 1
  26   13   40 1
  27   13   41 1
  28   14   42 1
  29   14   43 1
  30   15   16 2
  31   15   17 am
  32   17   18 1
  33   17   22 1
  34   18   19 1
  35   18   44 1
  36   18   45 1
  37   19   20 1
  38   19   46 1
  39   19   47 1
  40   20   21 1
  41   20   23 1
  42   20   48 1
  43   21   22 1
  44   21   49 1
  45   21   50 1
  46   22   51 1
  47   22   52 1
  48   23   24 ar
  49   23   28 ar
  50   24   25 ar
  51   24   53 1
  52   25   26 ar
  53   25   54 1
  54   26   27 ar
  55   26   29 1
  56   27   28 ar
  57   27   55 1
  58   28   56 1
  59   29   30 3

#	End of record

