#	Name: ASD01815876
#	Creating user name:	WinNT
#	Creation time:	15. 06. 2019 19:34

#	Modifying user name:	WinNT
#	Modification time:	15. 06. 2019 19:34

#	Program:	/corina/corina34_cracker 3.40 0067  02.08.2006

@<TRIPOS>MOLECULE
ASD01815876
  58   63    0    0    0
SMALL
NO_CHARGES


@<TRIPOS>ATOM
   1 C1            -0.0167     1.3813     0.0096 C.ar    
   2 C2             0.0021    -0.0041     0.0020 C.ar    
   3 C3             1.1984    -0.6909    -0.0127 C.ar    
   4 C4             2.4015     0.0059    -0.0204 C.ar    
   5 C5             2.3790     1.4106    -0.0132 C.ar    
   6 C6             1.1663     2.0916     0.0022 C.ar    
   7 N7             3.6053    -0.6772    -0.0347 N.pl3   
   8 C8             4.7970    -0.0586    -0.0423 C.2     
   9 C9             4.9000     1.3102    -0.0368 C.2     
  10 C10            3.6670     2.1301    -0.0217 C.2     
  11 C11            5.9971     2.2729    -0.0428 C.2     
  12 N12            5.4246     3.4960    -0.0325 N.am    
  13 N13            4.0323     3.3799    -0.0199 N.2     
  14 C14            6.1268     4.7086    -0.0337 C.ar    
  15 O15            7.1915     2.0229    -0.0544 O.2     
  16 C16            3.5779    -2.1420    -0.0413 C.3     
  17 C17            3.5555    -2.6375    -1.4643 C.ar    
  18 C18            4.7443    -2.8865    -2.1261 C.ar    
  19 C19            4.7296    -3.3405    -3.4294 C.ar    
  20 C20            3.5142    -3.5480    -4.0784 C.ar    
  21 C21            2.3197    -3.2955    -3.4070 C.ar    
  22 C22            2.3460    -2.8471    -2.1020 C.ar    
  23 C23            3.4921    -4.0355    -5.4798 C.ar    
  24 C24            2.2768    -4.2429    -6.1289 C.ar    
  25 C25            2.2621    -4.6965    -7.4323 C.ar    
  26 C26            3.4509    -4.9456    -8.0941 C.ar    
  27 C27            4.6603    -4.7418    -7.4544 C.ar    
  28 C28            4.6868    -4.2820    -6.1533 C.ar    
  29 C29            5.4343     5.9125    -0.0223 C.ar    
  30 C30            7.5155     4.7073    -0.0406 C.ar    
  31 C31            8.2067     5.9024    -0.0418 C.ar    
  32 C32            7.5142     7.1047    -0.0362 C.ar    
  33 C33            6.1269     7.1068    -0.0236 C.ar    
  34 O34            8.1956     8.2812    -0.0370 O.3     
  35 C35            7.4188     9.4807    -0.0311 C.3     
  36 H36           -0.9602     1.9068     0.0170 H       
  37 H37           -0.9289    -0.5515     0.0080 H       
  38 H38            1.2004    -1.7709    -0.0178 H       
  39 H39            1.1506     3.1715     0.0081 H       
  40 H40            5.6983    -0.6536    -0.0527 H       
  41 H41            4.4656    -2.5242     0.4626 H       
  42 H42            2.6861    -2.4910     0.4791 H       
  43 H43            5.6858    -2.7250    -1.6221 H       
  44 H44            5.6584    -3.5343    -3.9453 H       
  45 H45            1.3749    -3.4547    -3.9054 H       
  46 H46            1.4207    -2.6512    -1.5806 H       
  47 H47            1.3479    -4.0495    -5.6129 H       
  48 H48            1.3206    -4.8577    -7.9364 H       
  49 H49            3.4348    -5.3008    -9.1139 H       
  50 H50            5.5856    -4.9381    -7.9756 H       
  51 H51            5.6316    -4.1230    -5.6548 H       
  52 H52            4.3544     5.9143    -0.0129 H       
  53 H53            8.0547     3.7715    -0.0445 H       
  54 H54            9.2867     5.9015    -0.0468 H       
  55 H55            5.5885     8.0431    -0.0196 H       
  56 H56            6.7860     9.5081    -0.9181 H       
  57 H57            6.7942     9.5046     0.8618 H       
  58 H58            8.0839    10.3442    -0.0324 H       
@<TRIPOS>BOND
   1    1    2 ar
   2    1    6 ar
   3    1   36 1
   4    2    3 ar
   5    2   37 1
   6    3    4 ar
   7    3   38 1
   8    4    5 ar
   9    4    7 1
  10    5    6 ar
  11    5   10 1
  12    6   39 1
  13    7    8 1
  14    7   16 1
  15    8    9 2
  16    8   40 1
  17    9   10 1
  18    9   11 1
  19   10   13 2
  20   11   12 am
  21   11   15 2
  22   12   13 1
  23   12   14 1
  24   14   29 ar
  25   14   30 ar
  26   16   17 1
  27   16   41 1
  28   16   42 1
  29   17   18 ar
  30   17   22 ar
  31   18   19 ar
  32   18   43 1
  33   19   20 ar
  34   19   44 1
  35   20   21 ar
  36   20   23 1
  37   21   22 ar
  38   21   45 1
  39   22   46 1
  40   23   24 ar
  41   23   28 ar
  42   24   25 ar
  43   24   47 1
  44   25   26 ar
  45   25   48 1
  46   26   27 ar
  47   26   49 1
  48   27   28 ar
  49   27   50 1
  50   28   51 1
  51   29   33 ar
  52   29   52 1
  53   30   31 ar
  54   30   53 1
  55   31   32 ar
  56   31   54 1
  57   32   33 ar
  58   32   34 1
  59   33   55 1
  60   34   35 1
  61   35   56 1
  62   35   57 1
  63   35   58 1

#	End of record

