#	Name: ASD03090525
#	Creating user name:	WinNT
#	Creation time:	15. 06. 2019 20:29

#	Modifying user name:	WinNT
#	Modification time:	15. 06. 2019 20:29

#	Program:	/corina/corina34_cracker 3.40 0067  02.08.2006

@<TRIPOS>MOLECULE
ASD03090525
  35   37    0    0    0
SMALL
NO_CHARGES


@<TRIPOS>ATOM
   1 C1            -0.0181     1.5035     0.0014 C.2     
   2 C2             0.0032    -0.0033    -0.0069 C.3     
   3 O3             1.0234     2.1248    -0.0132 O.2     
   4 N4            -1.1946     2.1607     0.0195 N.am    
   5 C5            -1.2152     3.5500     0.1323 C.ar    
   6 C6            -2.4236     4.2310     0.0365 C.ar    
   7 C7            -2.4299     5.6099     0.1503 C.ar    
   8 C8            -1.2222     6.2629     0.3569 C.ar    
   9 C9            -0.0596     5.5230     0.4421 C.ar    
  10 N10           -0.0851     4.2083     0.3352 N.ar    
  11 C11           -1.1807     7.7638     0.4864 C.3     
  12 F12           -1.3327     8.1203     1.8307 F       
  13 F13            0.0474     8.2388     0.0140 F       
  14 F14           -2.2183     8.3256    -0.2652 F       
  15 N15            5.3366    -1.8069     0.1654 N.pl3   
  16 C16            5.5197    -1.8678     1.5200 C.2     
  17 C17            4.3976    -1.4872     2.1510 C.2     
  18 C18            3.4157    -1.1555     1.1158 C.ar    
  19 C19            2.0931    -0.7084     1.1401 C.ar    
  20 C20            1.4308    -0.4854    -0.0339 C.ar    
  21 C21            2.0623    -0.6998    -1.2516 C.ar    
  22 C22            3.3663    -1.1411    -1.2986 C.ar    
  23 C23            4.0598    -1.3746    -0.1154 C.ar    
  24 H24           -0.4900    -0.3786     0.8898 H       
  25 H25           -0.5206    -0.3693    -0.8899 H       
  26 H26           -2.0270     1.6670    -0.0461 H       
  27 H27           -3.3449     3.6910    -0.1250 H       
  28 H28           -3.3532     6.1657     0.0796 H       
  29 H29            0.8822     6.0266     0.6025 H       
  30 H30            6.0077    -2.0309    -0.4982 H       
  31 H31            6.4317    -2.1766     2.0091 H       
  32 H32            4.2473    -1.4354     3.2192 H       
  33 H33            1.5952    -0.5403     2.0836 H       
  34 H34            1.5256    -0.5190    -2.1712 H       
  35 H35            3.8487    -1.3052    -2.2509 H       
@<TRIPOS>BOND
   1    1    2 1
   2    1    3 2
   3    1    4 am
   4    2   20 1
   5    2   24 1
   6    2   25 1
   7    4    5 1
   8    4   26 1
   9    5    6 ar
  10    5   10 ar
  11    6    7 ar
  12    6   27 1
  13    7    8 ar
  14    7   28 1
  15    8    9 ar
  16    8   11 1
  17    9   10 ar
  18    9   29 1
  19   11   12 1
  20   11   13 1
  21   11   14 1
  22   15   16 1
  23   15   23 1
  24   15   30 1
  25   16   17 2
  26   16   31 1
  27   17   18 1
  28   17   32 1
  29   18   19 ar
  30   18   23 ar
  31   19   20 ar
  32   19   33 1
  33   20   21 ar
  34   21   22 ar
  35   21   34 1
  36   22   23 ar
  37   22   35 1

#	End of record

