#	Name: ASD03490001
#	Creating user name:	WinNT
#	Creation time:	15. 06. 2019 20:42

#	Modifying user name:	WinNT
#	Modification time:	15. 06. 2019 20:42

#	Program:	/corina/corina34_cracker 3.40 0067  02.08.2006

@<TRIPOS>MOLECULE
ASD03490001
  33   36    0    0    0
SMALL
NO_CHARGES


@<TRIPOS>ATOM
   1 C1            -0.0162     1.3452     0.0094 C.2     
   2 N2             0.0021    -0.0041     0.0020 N.pl3   
   3 C3            -1.3387    -0.4160     0.0126 C.2     
   4 C4            -2.1026     0.7302     0.0260 C.2     
   5 N5            -1.2641     1.7786     0.0284 N.2     
   6 S6             1.6392     1.9723    -0.0030 S.3     
   7 C7             2.4610     0.3508    -0.0196 C.3     
   8 C8             1.3094    -0.6539    -0.0139 C.3     
   9 C9            -1.8335    -1.8041     0.0094 C.ar    
  10 C10           -3.5824     0.7943     0.0405 C.ar    
  11 C11           -2.8686    -2.2027     0.8678 C.ar    
  12 C12           -3.2996    -3.5108     0.8309 C.ar    
  13 N13           -2.7525    -4.3824     0.0036 N.ar    
  14 C14           -1.7763    -4.0500    -0.8209 C.ar    
  15 C15           -1.2867    -2.7627    -0.8561 C.ar    
  16 C16           -4.2320     1.8084     0.7443 C.ar    
  17 C17           -5.6102     1.8638     0.7548 C.ar    
  18 C18           -6.3494     0.9139     0.0681 C.ar    
  19 C19           -5.7088    -0.0957    -0.6322 C.ar    
  20 C20           -4.3308    -0.1558    -0.6542 C.ar    
  21 F21           -7.6990     0.9722     0.0817 F       
  22 H22            3.0620     0.2370    -0.9217 H       
  23 H23            3.0791     0.2274     0.8697 H       
  24 H24            1.3989    -1.2884     0.8678 H       
  25 H25            1.3820    -1.2789    -0.9040 H       
  26 H26           -3.3206    -1.4954     1.5473 H       
  27 H27           -4.0958    -3.8278     1.4881 H       
  28 H28           -1.3587    -4.7967    -1.4800 H       
  29 H29           -0.4882    -2.4980    -1.5334 H       
  30 H30           -3.6567     2.5487     1.2804 H       
  31 H31           -6.1141     2.6486     1.2994 H       
  32 H32           -6.2892    -0.8341    -1.1653 H       
  33 H33           -3.8324    -0.9431    -1.2003 H       
@<TRIPOS>BOND
   1    1    2 1
   2    1    6 1
   3    1    5 2
   4    2    3 1
   5    2    8 1
   6    3    4 2
   7    3    9 1
   8    4    5 1
   9    4   10 1
  10    6    7 1
  11    7    8 1
  12    7   22 1
  13    7   23 1
  14    8   24 1
  15    8   25 1
  16    9   11 ar
  17    9   15 ar
  18   10   16 ar
  19   10   20 ar
  20   11   12 ar
  21   11   26 1
  22   12   13 ar
  23   12   27 1
  24   13   14 ar
  25   14   15 ar
  26   14   28 1
  27   15   29 1
  28   16   17 ar
  29   16   30 1
  30   17   18 ar
  31   17   31 1
  32   18   19 ar
  33   18   21 1
  34   19   20 ar
  35   19   32 1
  36   20   33 1

#	End of record

