#	Name: ASD01912350
#	Creating user name:	WinNT
#	Creation time:	15. 06. 2019 19:59

#	Modifying user name:	WinNT
#	Modification time:	15. 06. 2019 19:59

#	Program:	/corina/corina34_cracker 3.40 0067  02.08.2006

@<TRIPOS>MOLECULE
ASD01912350
  41   43    0    0    0
SMALL
NO_CHARGES


@<TRIPOS>ATOM
   1 C1            -0.1039     1.5116    -0.7743 C.ar    
   2 C2            -0.0855     0.1183    -0.8866 C.ar    
   3 C3             1.1281    -0.5268    -1.0382 C.ar    
   4 C4             2.2866     0.2382    -1.0732 C.ar    
   5 C5             2.1970     1.6133    -0.9564 C.ar    
   6 N6             1.0297     2.2061    -0.8128 N.ar    
   7 C7             3.4529     2.4453    -0.9941 C.3     
   8 C8            -1.3524     2.1963    -0.6228 C.1     
   9 C9            -2.3760     2.7576    -0.4985 C.1     
  10 C10           -3.6246     3.4422    -0.3469 C.2     
  11 N11           -3.6046     7.1911     1.0674 N.am    
  12 C12           -4.8509     6.4191     1.1538 C.3     
  13 C13           -4.9561     5.5119    -0.0787 C.3     
  14 C14           -3.6474     4.7700    -0.2395 C.2     
  15 C15           -2.3654     5.5725    -0.2758 C.3     
  16 C16           -2.3251     6.4782     0.9616 C.3     
  17 O17           -1.1504     8.7852     1.3273 O.3     
  18 C18           -2.3831     9.2999     1.1384 C.2     
  19 C19           -2.2608    10.6539     1.0114 C.2     
  20 C20           -0.8936    10.9485     1.1312 C.2     
  21 C21           -0.2496     9.7762     1.3236 C.2     
  22 C22           -3.6352     8.5385     1.0796 C.2     
  23 O23           -4.7018     9.1233     1.0419 O.2     
  24 H24           -1.0058    -0.4461    -0.8551 H       
  25 H25            1.1741    -1.6022    -1.1272 H       
  26 H26            3.2494    -0.2368    -1.1902 H       
  27 H27            3.6714     2.7271    -2.0241 H       
  28 H28            3.3115     3.3441    -0.3937 H       
  29 H29            4.2843     1.8666    -0.5916 H       
  30 H30           -4.5477     2.8823    -0.3197 H       
  31 H31           -4.8409     5.8088     2.0569 H       
  32 H32           -5.7016     7.1002     1.1799 H       
  33 H33           -5.7682     4.7980     0.0594 H       
  34 H34           -5.1460     6.1175    -0.9649 H       
  35 H35           -1.5096     4.8976    -0.2647 H       
  36 H36           -2.3401     6.1831    -1.1784 H       
  37 H37           -1.5129     7.1981     0.8612 H       
  38 H38           -2.1701     5.8713     1.8537 H       
  39 H39           -3.0609    11.3611     0.8501 H       
  40 H40           -0.4414    11.9279     1.0789 H       
  41 H41            0.8161     9.6580     1.4534 H       
@<TRIPOS>BOND
   1    1    2 ar
   2    1    6 ar
   3    1    8 1
   4    2    3 ar
   5    2   24 1
   6    3    4 ar
   7    3   25 1
   8    4    5 ar
   9    4   26 1
  10    5    6 ar
  11    5    7 1
  12    7   27 1
  13    7   28 1
  14    7   29 1
  15    8    9 3
  16    9   10 1
  17   10   14 2
  18   10   30 1
  19   11   12 1
  20   11   16 1
  21   11   22 am
  22   12   13 1
  23   12   31 1
  24   12   32 1
  25   13   14 1
  26   13   33 1
  27   13   34 1
  28   14   15 1
  29   15   16 1
  30   15   35 1
  31   15   36 1
  32   16   37 1
  33   16   38 1
  34   17   18 1
  35   17   21 1
  36   18   19 2
  37   18   22 1
  38   19   20 1
  39   19   39 1
  40   20   21 2
  41   20   40 1
  42   21   41 1
  43   22   23 2

#	End of record

