#	Name: ASD08150968
#	Creating user name:	WinNT
#	Creation time:	15. 06. 2019 21:16

#	Modifying user name:	WinNT
#	Modification time:	15. 06. 2019 21:16

#	Program:	/corina/corina34_cracker 3.40 0067  02.08.2006

@<TRIPOS>MOLECULE
ASD08150968
  72   77    0    0    0
SMALL
NO_CHARGES


@<TRIPOS>ATOM
   1 N1            -1.6883    10.2411     6.4932 N.2     
   2 C2            -1.9869    10.7931     7.6332 C.2     
   3 N3            -0.8473    11.0847     8.3222 N.pl3   
   4 C4             0.2138    10.6836     7.5505 C.ar    
   5 N5             1.5354    10.7063     7.6876 N.ar    
   6 C6             2.3165    10.2304     6.7407 C.ar    
   7 N7             1.8408     9.7139     5.6225 N.ar    
   8 C8             0.5327     9.6485     5.3964 C.ar    
   9 C9            -0.3420    10.1435     6.3783 C.ar    
  10 N10            0.0435     9.1057     4.2211 N.pl3   
  11 C11            0.9709     8.5949     3.2085 C.3     
  12 C12            1.3985     7.1734     3.5794 C.3     
  13 N13            1.0980     8.8564    -1.6690 N.ar    
  14 C14            0.5094     8.8435    -2.8403 C.ar    
  15 C15           -0.8688     8.6828    -2.9658 C.ar    
  16 C16           -1.6418     8.5329    -1.8498 C.ar    
  17 C17           -1.0055     8.5468    -0.5941 C.ar    
  18 C18           -1.7367     8.3978     0.5963 C.ar    
  19 C19           -1.0913     8.4161     1.7967 C.ar    
  20 C20            0.2890     8.5799     1.8647 C.ar    
  21 C21            1.0400     8.7291     0.7192 C.ar    
  22 C22            0.3997     8.7148    -0.5392 C.ar    
  23 Cl23          -3.4596     8.1925     0.5386 Cl      
  24 N24            2.4231     8.8934     0.8022 N.3     
  25 C25            2.8206    10.2381     0.3644 C.3     
  26 C26            4.3144    10.4405     0.6397 C.3     
  27 N27            5.0586     9.3373     0.0135 N.am    
  28 C28            4.6298     7.9593     0.2972 C.3     
  29 C29            3.1236     7.8546     0.0353 C.3     
  30 C30            6.1055     9.5825    -0.7991 C.2     
  31 O31            6.5081    10.7174    -0.9437 O.2     
  32 N32            9.0209     7.0417    -2.5210 N.am    
  33 C33            8.2296     7.8404    -3.4668 C.3     
  34 C34            7.5780     9.0006    -2.7078 C.3     
  35 C35            6.7758     8.4466    -1.5281 C.3     
  36 C36            7.7157     7.7104    -0.5707 C.3     
  37 C37            8.3689     6.5356    -1.3055 C.3     
  38 C38           10.3188     6.7736    -2.7665 C.2     
  39 O39           10.9378     6.0415    -2.0237 O.2     
  40 C40           11.0008     7.3837    -3.9639 C.3     
  41 H41           -2.9897    10.9914     7.9819 H       
  42 H42           -0.7961    11.4998     9.1973 H       
  43 H43            3.3864    10.2641     6.8838 H       
  44 H44           -0.9133     9.0635     4.0677 H       
  45 H45            1.8495     9.2383     3.1630 H       
  46 H46            2.0176     6.7608     2.7828 H       
  47 H47            1.9687     7.1961     4.5080 H       
  48 H48            0.5137     6.5507     3.7114 H       
  49 H49            1.1085     8.9610    -3.7312 H       
  50 H50           -1.3255     8.6770    -3.9445 H       
  51 H51           -2.7116     8.4075    -1.9285 H       
  52 H52           -1.6591     8.3010     2.7081 H       
  53 H53            2.6300    10.3441    -0.7036 H       
  54 H54            2.2453    10.9841     0.9127 H       
  55 H55            4.6398    11.3898     0.2141 H       
  56 H56            4.4921    10.4381     1.7152 H       
  57 H57            5.1637     7.2680    -0.3548 H       
  58 H58            4.8378     7.7184     1.3397 H       
  59 H59            2.7680     6.8718     0.3451 H       
  60 H60            2.9287     7.9938    -1.0280 H       
  61 H61            8.8811     8.2343    -4.2469 H       
  62 H62            7.4561     7.2163    -3.9144 H       
  63 H63            8.3516     9.6734    -2.3377 H       
  64 H64            6.9118     9.5448    -3.3772 H       
  65 H65            6.0186     7.7547    -1.8969 H       
  66 H66            8.4881     8.3953    -0.2207 H       
  67 H67            7.1476     7.3362     0.2809 H       
  68 H68            7.6068     5.8050    -1.5768 H       
  69 H69            9.1123     6.0684    -0.6596 H       
  70 H70           11.3905     8.3664    -3.6985 H       
  71 H71           11.8218     6.7408    -4.2811 H       
  72 H72           10.2833     7.4851    -4.7782 H       
@<TRIPOS>BOND
   1    1    2 2
   2    1    9 1
   3    2    3 1
   4    2   41 1
   5    3    4 1
   6    3   42 1
   7    4    5 ar
   8    4    9 ar
   9    5    6 ar
  10    6    7 ar
  11    6   43 1
  12    7    8 ar
  13    8    9 ar
  14    8   10 1
  15   10   11 1
  16   10   44 1
  17   11   12 1
  18   11   20 1
  19   11   45 1
  20   12   46 1
  21   12   47 1
  22   12   48 1
  23   13   14 ar
  24   13   22 ar
  25   14   15 ar
  26   14   49 1
  27   15   16 ar
  28   15   50 1
  29   16   17 ar
  30   16   51 1
  31   17   18 ar
  32   17   22 ar
  33   18   19 ar
  34   18   23 1
  35   19   20 ar
  36   19   52 1
  37   20   21 ar
  38   21   22 ar
  39   21   24 1
  40   24   25 1
  41   24   29 1
  42   25   26 1
  43   25   53 1
  44   25   54 1
  45   26   27 1
  46   26   55 1
  47   26   56 1
  48   27   28 1
  49   27   30 am
  50   28   29 1
  51   28   57 1
  52   28   58 1
  53   29   59 1
  54   29   60 1
  55   30   31 2
  56   30   35 1
  57   32   33 1
  58   32   37 1
  59   32   38 am
  60   33   34 1
  61   33   61 1
  62   33   62 1
  63   34   35 1
  64   34   63 1
  65   34   64 1
  66   35   36 1
  67   35   65 1
  68   36   37 1
  69   36   66 1
  70   36   67 1
  71   37   68 1
  72   37   69 1
  73   38   39 2
  74   38   40 1
  75   40   70 1
  76   40   71 1
  77   40   72 1

#	End of record

