#	Name: ASD04840022
#	Creating user name:	WinNT
#	Creation time:	15. 06. 2019 20:52

#	Modifying user name:	WinNT
#	Modification time:	15. 06. 2019 20:52

#	Program:	/corina/corina34_cracker 3.40 0067  02.08.2006

@<TRIPOS>MOLECULE
ASD04840022
  37   39    0    0    0
SMALL
NO_CHARGES


@<TRIPOS>ATOM
   1 C1            -0.0167     1.3783     0.0096 C.ar    
   2 C2             0.0021    -0.0041     0.0020 C.ar    
   3 C3             1.2028    -0.6818    -0.0131 C.ar    
   4 C4             2.4082     0.0219    -0.0204 C.ar    
   5 C5             2.3787     1.4074    -0.0126 C.ar    
   6 C6             1.1733     2.0823     0.0020 C.ar    
   7 N7             3.7191    -0.4653    -0.0358 N.am    
   8 C8             4.6693     0.6503    -0.0390 C.3     
   9 C9             3.8015     1.9192    -0.0238 C.3     
  10 C10            4.0587    -1.7695    -0.0457 C.2     
  11 O11            3.0999    -2.7149    -0.0414 O.3     
  12 O12            5.2301    -2.0923    -0.0584 O.2     
  13 C13            3.5388    -4.0989    -0.0527 C.3     
  14 C14            2.3363    -5.0073    -0.0459 C.ar    
  15 C15            1.7735    -5.4177    -1.2399 C.ar    
  16 C16            0.6705    -6.2509    -1.2338 C.ar    
  17 C17            0.1305    -6.6740    -0.0336 C.ar    
  18 C18            0.6939    -6.2642     1.1604 C.ar    
  19 C19            1.7996    -5.4346     1.1542 C.ar    
  20 C20            5.5409     0.5982     1.1893 C.2     
  21 O21            5.1964    -0.0526     2.1473 O.2     
  22 O22            6.6998     1.2747     1.2190 O.3     
  23 H23           -0.9584     1.9069     0.0170 H       
  24 H24           -0.9268    -0.5550     0.0083 H       
  25 H25            1.2106    -1.7618    -0.0190 H       
  26 H26            1.1605     3.1622     0.0080 H       
  27 H27            5.2823     0.6222    -0.9400 H       
  28 H28            3.9841     2.5154    -0.9178 H       
  29 H29            4.0016     2.5058     0.8729 H       
  30 H30            4.1299    -4.2854    -0.9493 H       
  31 H31            4.1468    -4.2945     0.8306 H       
  32 H32            2.1953    -5.0872    -2.1776 H       
  33 H33            0.2303    -6.5710    -2.1666 H       
  34 H34           -0.7317    -7.3243    -0.0288 H       
  35 H35            0.2719    -6.5945     2.0981 H       
  36 H36            2.2398    -5.1145     2.0870 H       
  37 H37            7.2247     1.2109     2.0287 H       
@<TRIPOS>BOND
   1    1    2 ar
   2    1    6 ar
   3    1   23 1
   4    2    3 ar
   5    2   24 1
   6    3    4 ar
   7    3   25 1
   8    4    5 ar
   9    4    7 1
  10    5    6 ar
  11    5    9 1
  12    6   26 1
  13    7    8 1
  14    7   10 am
  15    8    9 1
  16    8   20 1
  17    8   27 1
  18    9   28 1
  19    9   29 1
  20   10   11 1
  21   10   12 2
  22   11   13 1
  23   13   14 1
  24   13   30 1
  25   13   31 1
  26   14   15 ar
  27   14   19 ar
  28   15   16 ar
  29   15   32 1
  30   16   17 ar
  31   16   33 1
  32   17   18 ar
  33   17   34 1
  34   18   19 ar
  35   18   35 1
  36   19   36 1
  37   20   21 2
  38   20   22 1
  39   22   37 1

#	End of record

