#	Name: ASD02560123
#	Creating user name:	WinNT
#	Creation time:	15. 06. 2019 20:24

#	Modifying user name:	WinNT
#	Modification time:	15. 06. 2019 20:24

#	Program:	/corina/corina34_cracker 3.40 0067  02.08.2006

@<TRIPOS>MOLECULE
ASD02560123
  51   54    0    0    0
SMALL
NO_CHARGES


@<TRIPOS>ATOM
   1 N1             0.0654     1.3518     0.0713 N.2     
   2 N2             0.0107     0.1203    -0.0040 N.2     
   3 C3             1.4565     1.8226     0.0757 C.3     
   4 N4             2.2635     0.6157     0.3868 N.3     
   5 C5             1.3548    -0.4685    -0.0643 C.3     
   6 S6             1.4704    -1.8945     1.0508 S.3     
   7 C7             0.9713    -1.2023     2.6516 C.3     
   8 C8             1.0162    -2.2821     3.7018 C.2     
   9 O9             1.3519    -3.4078     3.4002 O.2     
  10 N10            0.6833    -1.9969     4.9763 N.am    
  11 Br11           1.9437     2.5352    -1.6906 Br      
  12 C12            3.4546     0.6075    -0.3441 C.ar    
  13 C13            0.6464    -3.0125     5.9313 C.ar    
  14 C14           -0.1744    -2.8854     7.0492 C.ar    
  15 C15           -0.2129    -3.8867     7.9941 C.ar    
  16 C16            0.5733    -5.0313     7.8294 C.ar    
  17 C17            1.3957    -5.1548     6.7060 C.ar    
  18 C18            1.4252    -4.1525     5.7624 C.ar    
  19 Cl19          -1.1493    -1.4635     7.2522 Cl      
  20 C20            0.5353    -6.1054     8.8391 C.2     
  21 O21           -0.1798    -5.9965     9.8154 O.2     
  22 O22            1.2936    -7.2078     8.6789 O.3     
  23 C23            3.4246     0.4341    -1.7228 C.ar    
  24 C24            4.6706     0.7782     0.3047 C.ar    
  25 C25            5.8460     0.7696    -0.4206 C.ar    
  26 C26            5.8135     0.5916    -1.7916 C.ar    
  27 C27            4.6047     0.4265    -2.4422 C.ar    
  28 Cl28           1.9070     0.2268    -2.5400 Cl      
  29 C29            7.0983     0.5833    -2.5792 C.3     
  30 C30            7.4331    -0.6820    -3.3715 C.3     
  31 C31            6.9914     0.5857    -4.1055 C.3     
  32 C32            4.7075     0.9733     1.7985 C.3     
  33 H33            1.5978     2.5822     0.8445 H       
  34 H34            1.5943    -0.7639    -1.0858 H       
  35 H35            1.6529    -0.3980     2.9280 H       
  36 H36           -0.0429    -0.8097     2.5773 H       
  37 H37            0.4695    -1.0852     5.2293 H       
  38 H38           -0.8492    -3.7879     8.8611 H       
  39 H39            2.0044    -6.0374     6.5761 H       
  40 H40            2.0605    -4.2477     4.8942 H       
  41 H41            1.2350    -7.8847     9.3670 H       
  42 H42            6.7917     0.9023     0.0837 H       
  43 H43            4.5828     0.2874    -3.5130 H       
  44 H44            7.9277     1.1310    -2.1316 H       
  45 H45            8.4827    -0.9665    -3.4455 H       
  46 H46            6.7241    -1.5085    -3.3232 H       
  47 H47            5.9918     0.5933    -4.5399 H       
  48 H48            7.7504     1.1352    -4.6623 H       
  49 H49            4.7893     0.0036     2.2896 H       
  50 H50            5.5675     1.5884     2.0635 H       
  51 H51            3.7925     1.4688     2.1230 H       
@<TRIPOS>BOND
   1    1    2 2
   2    1    3 1
   3    2    5 1
   4    3    4 1
   5    3   11 1
   6    3   33 1
   7    4    5 1
   8    4   12 1
   9    5    6 1
  10    5   34 1
  11    6    7 1
  12    7    8 1
  13    7   35 1
  14    7   36 1
  15    8    9 2
  16    8   10 am
  17   10   13 1
  18   10   37 1
  19   12   23 ar
  20   12   24 ar
  21   13   14 ar
  22   13   18 ar
  23   14   15 ar
  24   14   19 1
  25   15   16 ar
  26   15   38 1
  27   16   17 ar
  28   16   20 1
  29   17   18 ar
  30   17   39 1
  31   18   40 1
  32   20   21 2
  33   20   22 1
  34   22   41 1
  35   23   27 ar
  36   23   28 1
  37   24   25 ar
  38   24   32 1
  39   25   26 ar
  40   25   42 1
  41   26   27 ar
  42   26   29 1
  43   27   43 1
  44   29   30 1
  45   29   31 1
  46   29   44 1
  47   30   31 1
  48   30   45 1
  49   30   46 1
  50   31   47 1
  51   31   48 1
  52   32   49 1
  53   32   50 1
  54   32   51 1

#	End of record

