#	Name: ASD00190033
#	Creating user name:	WinNT
#	Creation time:	15. 06. 2019 18:33

#	Modifying user name:	WinNT
#	Modification time:	15. 06. 2019 18:33

#	Program:	/corina/corina34_cracker 3.40 0067  02.08.2006

@<TRIPOS>MOLECULE
ASD00190033
  51   55    0    0    0
SMALL
NO_CHARGES


@<TRIPOS>ATOM
   1 C1            -0.0164     1.3588     0.0095 C.ar    
   2 C2             0.0021    -0.0041     0.0020 C.ar    
   3 C3             1.2038    -0.7043    -0.0132 C.ar    
   4 C4             2.3964    -0.0415    -0.0211 C.ar    
   5 C5             2.4117     1.3569    -0.0137 C.ar    
   6 C6             1.1907     2.0739     0.0018 C.ar    
   7 C7             3.6573     2.1117    -0.0221 C.ar    
   8 C8             3.5779     3.5078    -0.0142 C.ar    
   9 C9             2.3047     4.1210     0.0017 C.ar    
  10 N10            1.1971     3.4154     0.0094 N.ar    
  11 N11            4.9884     1.7986    -0.0371 N.pl3   
  12 C12            5.6805     2.9707    -0.0382 C.2     
  13 N13            4.8498     3.9736    -0.0247 N.2     
  14 N14            2.2229     5.5034     0.0100 N.pl3   
  15 C15            0.9131     6.1595     0.0265 C.3     
  16 C16            7.1827     3.0900    -0.0523 C.3     
  17 C17            7.7322     2.9991     1.3822 C.3     
  18 C18            8.6632     1.7696     1.4204 C.3     
  19 C19            9.0926     1.5723    -0.0547 C.3     
  20 C20            7.7990     1.9125    -0.8356 C.3     
  21 C21            1.1033     7.6776     0.0328 C.3     
  22 C22           -0.2440     8.3526     0.0498 C.ar    
  23 C23           -0.8500     8.6557     1.2547 C.ar    
  24 C24           -2.0859     9.2748     1.2703 C.ar    
  25 C25           -2.7155     9.5912     0.0811 C.ar    
  26 C26           -2.1090     9.2889    -1.1238 C.ar    
  27 C27           -0.8712     8.6737    -1.1394 C.ar    
  28 H28           -0.9583     1.8871     0.0169 H       
  29 H29           -0.9306    -0.5486     0.0084 H       
  30 H30            1.1928    -1.7843    -0.0185 H       
  31 H31            3.3242    -0.5942    -0.0325 H       
  32 H32            5.3689     0.9064    -0.0449 H       
  33 H33            3.0327     6.0372     0.0048 H       
  34 H34            0.3493     5.8676    -0.8595 H       
  35 H35            0.3670     5.8580     0.9204 H       
  36 H36            7.4776     4.0362    -0.5058 H       
  37 H37            8.2945     3.9009     1.6244 H       
  38 H38            6.9123     2.8687     2.0885 H       
  39 H39            9.5323     1.9686     2.0474 H       
  40 H40            8.1238     0.8938     1.7811 H       
  41 H41            9.8955     2.2605    -0.3186 H       
  42 H42            9.3924     0.5399    -0.2349 H       
  43 H43            7.1201     1.0598    -0.8392 H       
  44 H44            8.0374     2.2158    -1.8551 H       
  45 H45            1.6671     7.9695     0.9189 H       
  46 H46            1.6495     7.9791    -0.8610 H       
  47 H47           -0.3581     8.4085     2.1839 H       
  48 H48           -2.5597     9.5110     2.2117 H       
  49 H49           -3.6814    10.0742     0.0932 H       
  50 H50           -2.6011     9.5358    -2.0530 H       
  51 H51           -0.3974     8.4376    -2.0808 H       
@<TRIPOS>BOND
   1    1    2 ar
   2    1    6 ar
   3    1   28 1
   4    2    3 ar
   5    2   29 1
   6    3    4 ar
   7    3   30 1
   8    4    5 ar
   9    4   31 1
  10    5    6 ar
  11    5    7 ar
  12    6   10 ar
  13    7    8 ar
  14    7   11 1
  15    8    9 ar
  16    8   13 1
  17    9   10 ar
  18    9   14 1
  19   11   12 1
  20   11   32 1
  21   12   13 2
  22   12   16 1
  23   14   15 1
  24   14   33 1
  25   15   21 1
  26   15   34 1
  27   15   35 1
  28   16   17 1
  29   16   20 1
  30   16   36 1
  31   17   18 1
  32   17   37 1
  33   17   38 1
  34   18   19 1
  35   18   39 1
  36   18   40 1
  37   19   20 1
  38   19   41 1
  39   19   42 1
  40   20   43 1
  41   20   44 1
  42   21   22 1
  43   21   45 1
  44   21   46 1
  45   22   23 ar
  46   22   27 ar
  47   23   24 ar
  48   23   47 1
  49   24   25 ar
  50   24   48 1
  51   25   26 ar
  52   25   49 1
  53   26   27 ar
  54   26   50 1
  55   27   51 1

#	End of record

