#	Name: ASD01870598
#	Creating user name:	WinNT
#	Creation time:	15. 06. 2019 19:39

#	Modifying user name:	WinNT
#	Modification time:	15. 06. 2019 19:39

#	Program:	/corina/corina34_cracker 3.40 0067  02.08.2006

@<TRIPOS>MOLECULE
ASD01870598
  40   43    0    0    0
SMALL
NO_CHARGES


@<TRIPOS>ATOM
   1 C1             0.0033     1.3697    -0.0285 C.ar    
   2 C2             0.0261    -0.0200    -0.0406 C.ar    
   3 C3             1.2280    -0.6996    -0.0547 C.ar    
   4 C4             2.4293    -0.0062    -0.0566 C.ar    
   5 C5             2.4245     1.3787    -0.0446 C.ar    
   6 C6             1.1985     2.0761    -0.0307 C.ar    
   7 C7             3.4784     2.4149    -0.0431 C.2     
   8 N8             2.8895     3.6243    -0.0291 N.am    
   9 C9             1.5492     3.5099    -0.0203 C.2     
  10 C10            3.5821     4.8444    -0.0236 C.ar    
  11 C11            2.8790     6.0416    -0.0089 C.ar    
  12 C12            3.5602     7.2422    -0.0035 C.ar    
  13 C13            4.9490     7.2526    -0.0122 C.ar    
  14 C14            5.6521     6.0548    -0.0264 C.ar    
  15 C15            4.9704     4.8544    -0.0269 C.ar    
  16 O16            0.7592     4.4326    -0.0071 O.2     
  17 O17            4.6753     2.2090    -0.0521 O.2     
  18 N18            5.6400     8.4698    -0.0072 N.am    
  19 C19            6.8104     8.5776     0.6523 C.2     
  20 C20            7.5918     9.8150     0.5616 C.2     
  21 O21            7.2188     7.6478     1.3231 O.2     
  22 C22            8.7875    10.0558     1.1757 C.2     
  23 C23            9.1718    11.3566     0.8146 C.2     
  24 C24            8.2062    11.8466     0.0062 C.2     
  25 O25            7.2583    10.9129    -0.1479 O.3     
  26 C26            9.5469     9.1088     2.0688 C.3     
  27 F27           -1.1755     2.0296    -0.0203 F       
  28 H28           -0.9022    -0.5718    -0.0386 H       
  29 H29            1.2328    -1.7796    -0.0640 H       
  30 H30            3.3655    -0.5445    -0.0669 H       
  31 H31            1.7990     6.0334    -0.0022 H       
  32 H32            3.0132     8.1734     0.0072 H       
  33 H33            6.7321     6.0626    -0.0335 H       
  34 H34            5.5171     3.9230    -0.0338 H       
  35 H35            5.2764     9.2358    -0.4783 H       
  36 H36           10.0701    11.8696     1.1248 H       
  37 H37            8.2015    12.8280    -0.4446 H       
  38 H38           10.2258     8.5061     1.4655 H       
  39 H39           10.1197     9.6794     2.7999 H       
  40 H40            8.8444     8.4560     2.5869 H       
@<TRIPOS>BOND
   1    1    2 ar
   2    1    6 ar
   3    1   27 1
   4    2    3 ar
   5    2   28 1
   6    3    4 ar
   7    3   29 1
   8    4    5 ar
   9    4   30 1
  10    5    7 1
  11    5    6 ar
  12    6    9 1
  13    7    8 am
  14    7   17 2
  15    8    9 am
  16    8   10 1
  17    9   16 2
  18   10   11 ar
  19   10   15 ar
  20   11   12 ar
  21   11   31 1
  22   12   13 ar
  23   12   32 1
  24   13   14 ar
  25   13   18 1
  26   14   15 ar
  27   14   33 1
  28   15   34 1
  29   18   19 am
  30   18   35 1
  31   19   20 1
  32   19   21 2
  33   20   22 2
  34   20   25 1
  35   22   23 1
  36   22   26 1
  37   23   24 2
  38   23   36 1
  39   24   25 1
  40   24   37 1
  41   26   38 1
  42   26   39 1
  43   26   40 1

#	End of record

