#	Name: ASD01810387
#	Creating user name:	WinNT
#	Creation time:	15. 06. 2019 19:24

#	Modifying user name:	WinNT
#	Modification time:	15. 06. 2019 19:24

#	Program:	/corina/corina34_cracker 3.40 0067  02.08.2006

@<TRIPOS>MOLECULE
ASD01810387
  52   55    0    0    0
SMALL
NO_CHARGES


@<TRIPOS>ATOM
   1 C1             6.7342     1.6956    -0.9328 C.ar    
   2 C2             6.8406     0.3120    -0.9491 C.ar    
   3 C3             5.7539    -0.4814    -0.6465 C.ar    
   4 C4             4.5320     0.1071    -0.3198 C.ar    
   5 C5             4.4290     1.5077    -0.3045 C.ar    
   6 C6             5.5375     2.2970    -0.6130 C.ar    
   7 N7             3.4375    -0.6741    -0.0157 N.pl3   
   8 C8             2.2439    -0.1583     0.3031 C.2     
   9 C9             2.0204     1.2032     0.3514 C.2     
  10 C10            3.1316     2.1174     0.0425 C.2     
  11 O11            2.9858     3.3268     0.0715 O.2     
  12 C12            0.6949     1.7307     0.7048 C.2     
  13 C13            3.5868    -2.1313    -0.0430 C.3     
  14 C14            3.4415    -2.6319    -1.4814 C.3     
  15 C15            3.6709    -4.1453    -1.5221 C.3     
  16 C16            3.4644    -4.6494    -2.9522 C.3     
  17 N17            2.1002    -4.3310    -3.3926 N.3     
  18 C18            1.8718    -2.8805    -3.4071 C.3     
  19 C19            2.0307    -2.3236    -1.9905 C.3     
  20 C20            1.8343    -4.8920    -4.6438 C.ar    
  21 O21           -0.2159     0.9663     0.9576 O.2     
  22 O22            0.4891     3.0623     0.7485 O.3     
  23 C23            2.8083    -5.6409    -5.2920 C.ar    
  24 F24            5.8724    -1.8270    -0.6668 F       
  25 C25            0.5935    -4.7071    -5.2402 C.ar    
  26 C26            0.3339    -5.2632    -6.4774 C.ar    
  27 C27            1.3076    -6.0038    -7.1223 C.ar    
  28 C28            2.5421    -6.1942    -6.5291 C.ar    
  29 C29            1.0204    -6.6099    -8.4718 C.3     
  30 F30            1.3760    -5.7027    -9.4757 F       
  31 F31            1.7626    -7.7863    -8.6221 F       
  32 F32           -0.3439    -6.9034    -8.5704 F       
  33 H33            7.5953     2.3037    -1.1677 H       
  34 H34            7.7843    -0.1483    -1.2017 H       
  35 H35            5.4572     3.3739    -0.6010 H       
  36 H36            1.4288    -0.8295     0.5297 H       
  37 H37            4.5711    -2.4028     0.3386 H       
  38 H38            2.8172    -2.5871     0.5799 H       
  39 H39            4.1755    -2.1351    -2.1159 H       
  40 H40            4.6885    -4.3679    -1.2011 H       
  41 H41            2.9626    -4.6387    -0.8565 H       
  42 H42            4.1821    -4.1658    -3.6149 H       
  43 H43            3.6129    -5.7288    -2.9819 H       
  44 H44            2.5970    -2.4052    -4.0676 H       
  45 H45            0.8637    -2.6751    -3.7670 H       
  46 H46            1.2967    -2.7883    -1.3323 H       
  47 H47            1.8766    -1.2446    -2.0042 H       
  48 H48           -0.3992     3.3617     0.9858 H       
  49 H49            3.7727    -5.7901    -4.8293 H       
  50 H50           -0.1676    -4.1294    -4.7368 H       
  51 H51           -0.6306    -5.1198    -6.9416 H       
  52 H52            3.3003    -6.7732    -7.0354 H       
@<TRIPOS>BOND
   1    1    2 ar
   2    1    6 ar
   3    1   33 1
   4    2    3 ar
   5    2   34 1
   6    3    4 ar
   7    3   24 1
   8    4    5 ar
   9    4    7 1
  10    5    6 ar
  11    5   10 1
  12    6   35 1
  13    7    8 1
  14    7   13 1
  15    8    9 2
  16    8   36 1
  17    9   10 1
  18    9   12 1
  19   10   11 2
  20   12   21 2
  21   12   22 1
  22   13   14 1
  23   13   37 1
  24   13   38 1
  25   14   15 1
  26   14   19 1
  27   14   39 1
  28   15   16 1
  29   15   40 1
  30   15   41 1
  31   16   17 1
  32   16   42 1
  33   16   43 1
  34   17   18 1
  35   17   20 1
  36   18   19 1
  37   18   44 1
  38   18   45 1
  39   19   46 1
  40   19   47 1
  41   20   25 ar
  42   20   23 ar
  43   22   48 1
  44   23   28 ar
  45   23   49 1
  46   25   26 ar
  47   25   50 1
  48   26   27 ar
  49   26   51 1
  50   27   29 1
  51   27   28 ar
  52   28   52 1
  53   29   30 1
  54   29   31 1
  55   29   32 1

#	End of record

