#	Name: ASD05130116
#	Creating user name:	WinNT
#	Creation time:	15. 06. 2019 20:56

#	Modifying user name:	WinNT
#	Modification time:	15. 06. 2019 20:56

#	Program:	/corina/corina34_cracker 3.40 0067  02.08.2006

@<TRIPOS>MOLECULE
ASD05130116
  74   78    0    0    0
SMALL
NO_CHARGES


@<TRIPOS>ATOM
   1 N1            -0.1628     1.5515     0.1043 N.am    
   2 C2             0.0507     0.4240     0.8112 C.2     
   3 O3             1.1182     0.2473     1.3661 O.2     
   4 N4            -0.9189    -0.5076     0.9030 N.am    
   5 C5            -0.6621    -1.7244     1.5470 C.ar    
   6 C6            -1.6725    -2.3644     2.2527 C.ar    
   7 C7            -1.4172    -3.5641     2.8871 C.ar    
   8 C8            -0.1544    -4.1289     2.8203 C.ar    
   9 C9             0.8544    -3.4923     2.1176 C.ar    
  10 C10            0.6014    -2.2953     1.4761 C.ar    
  11 C11           -2.5133    -4.2590     3.6531 C.3     
  12 N12           -2.9974    -5.4101     2.8794 N.3     
  13 C13           -3.8939    -6.2484     3.6876 C.3     
  14 C14           -4.4377    -7.3891     2.8241 C.3     
  15 N15           -3.3159    -8.1787     2.2970 N.3     
  16 C16           -2.4194    -7.3404     1.4888 C.3     
  17 C17           -1.8756    -6.1997     2.3523 C.3     
  18 C18           -3.8000    -9.3298     1.5234 C.3     
  19 F19            0.0934    -5.3025     3.4420 F       
  20 C20            0.8109     2.5597     0.0818 C.ar    
  21 C21            0.4330     3.8880    -0.0902 C.ar    
  22 C22            1.3909     4.8862    -0.1134 C.ar    
  23 C23            2.7283     4.5690     0.0346 C.ar    
  24 C24            3.1147     3.2385     0.2080 C.ar    
  25 C25            2.1482     2.2341     0.2364 C.ar    
  26 F26            3.6612     5.5460     0.0110 F       
  27 F27           -0.8725     4.2035    -0.2353 F       
  28 N28            6.5377     2.8574     1.7764 N.am    
  29 C29            5.2350     3.1697     1.6308 C.2     
  30 C30            4.5473     2.8956     0.3669 C.2     
  31 C31            5.2363     2.3206    -0.6658 C.2     
  32 C32            6.6038     2.0023    -0.4884 C.ar    
  33 C33            7.3475     1.4134    -1.5184 C.ar    
  34 N34            8.6175     1.1239    -1.3371 N.ar    
  35 C35            9.2437     1.3715    -0.1916 C.ar    
  36 C36            8.5817     1.9530     0.8805 C.ar    
  37 C37            7.2377     2.2793     0.7426 C.ar    
  38 O38            4.6267     3.6807     2.5542 O.2     
  39 N39           10.5853     1.0418    -0.0647 N.pl3   
  40 C40           11.2895     1.3085     1.1919 C.3     
  41 C41            7.2158     3.1420     3.0435 C.3     
  42 C42            7.0840     1.9353     3.9748 C.3     
  43 H43           -0.9885     1.6636    -0.3922 H       
  44 H44           -1.7945    -0.3353     0.5230 H       
  45 H45           -2.6571    -1.9239     2.3057 H       
  46 H46            1.8386    -3.9342     2.0670 H       
  47 H47            1.3873    -1.8014     0.9241 H       
  48 H48           -2.1249    -4.6030     4.6117 H       
  49 H49           -3.3353    -3.5636     3.8225 H       
  50 H50           -3.3420    -6.6624     4.5315 H       
  51 H51           -4.7229    -5.6442     4.0560 H       
  52 H52           -5.0801    -8.0288     3.4292 H       
  53 H53           -5.0124    -6.9756     1.9954 H       
  54 H54           -1.5904    -7.9446     1.1204 H       
  55 H55           -2.9712    -6.9264     0.6449 H       
  56 H56           -1.2332    -5.5600     1.7472 H       
  57 H57           -1.3009    -6.6132     3.1811 H       
  58 H58           -4.4030    -8.9774     0.6865 H       
  59 H59           -2.9494    -9.8968     1.1450 H       
  60 H60           -4.4067    -9.9692     2.1645 H       
  61 H61            1.0930     5.9156    -0.2478 H       
  62 H62            2.4420     1.2040     0.3747 H       
  63 H63            4.7431     2.1120    -1.6037 H       
  64 H64            6.8761     1.1958    -2.4654 H       
  65 H65            9.1020     2.1484     1.8065 H       
  66 H66           11.0571     0.6346    -0.8081 H       
  67 H67           11.2596     2.3770     1.4055 H       
  68 H68           10.8064     0.7624     2.0022 H       
  69 H69           12.3265     0.9846     1.1032 H       
  70 H70            8.2706     3.3414     2.8542 H       
  71 H71            6.7595     4.0140     3.5119 H       
  72 H72            7.5886     2.1470     4.9175 H       
  73 H73            6.0293     1.7358     4.1640 H       
  74 H74            7.5404     1.0632     3.5063 H       
@<TRIPOS>BOND
   1    1    2 am
   2    1   20 1
   3    1   43 1
   4    2    3 2
   5    2    4 am
   6    4    5 1
   7    4   44 1
   8    5    6 ar
   9    5   10 ar
  10    6    7 ar
  11    6   45 1
  12    7    8 ar
  13    7   11 1
  14    8    9 ar
  15    8   19 1
  16    9   10 ar
  17    9   46 1
  18   10   47 1
  19   11   12 1
  20   11   48 1
  21   11   49 1
  22   12   13 1
  23   12   17 1
  24   13   14 1
  25   13   50 1
  26   13   51 1
  27   14   15 1
  28   14   52 1
  29   14   53 1
  30   15   16 1
  31   15   18 1
  32   16   17 1
  33   16   54 1
  34   16   55 1
  35   17   56 1
  36   17   57 1
  37   18   58 1
  38   18   59 1
  39   18   60 1
  40   20   21 ar
  41   20   25 ar
  42   21   22 ar
  43   21   27 1
  44   22   23 ar
  45   22   61 1
  46   23   24 ar
  47   23   26 1
  48   24   25 ar
  49   24   30 1
  50   25   62 1
  51   28   29 am
  52   28   37 1
  53   28   41 1
  54   29   30 1
  55   29   38 2
  56   30   31 2
  57   31   32 1
  58   31   63 1
  59   32   33 ar
  60   32   37 ar
  61   33   34 ar
  62   33   64 1
  63   34   35 ar
  64   35   36 ar
  65   35   39 1
  66   36   37 ar
  67   36   65 1
  68   39   40 1
  69   39   66 1
  70   40   67 1
  71   40   68 1
  72   40   69 1
  73   41   42 1
  74   41   70 1
  75   41   71 1
  76   42   72 1
  77   42   73 1
  78   42   74 1

#	End of record

