#	Name: ASD01911294
#	Creating user name:	WinNT
#	Creation time:	15. 06. 2019 19:57

#	Modifying user name:	WinNT
#	Modification time:	15. 06. 2019 19:57

#	Program:	/corina/corina34_cracker 3.40 0067  02.08.2006

@<TRIPOS>MOLECULE
ASD01911294
  33   35    0    0    0
SMALL
NO_CHARGES


@<TRIPOS>ATOM
   1 O1            -0.0163     1.3525     0.0095 O.3     
   2 C2             0.0021    -0.0041     0.0020 C.ar    
   3 C3            -1.1932    -0.7080     0.0096 C.ar    
   4 C4            -1.1790    -2.0935     0.0022 C.ar    
   5 C5             0.0559    -2.7657    -0.0194 C.ar    
   6 C6             1.2527    -2.0433    -0.0238 C.ar    
   7 C7             1.2209    -0.6779    -0.0190 C.ar    
   8 O8            -2.3435    -2.7826     0.0217 O.3     
   9 C9            -2.3531    -4.1261    -0.4605 C.3     
  10 C10           -1.2527    -4.9290     0.2486 C.3     
  11 C11            0.0667    -4.2362    -0.0420 C.2     
  12 O12            1.0776    -4.8633    -0.2809 O.2     
  13 C13            1.2480     2.0185     0.0010 C.3     
  14 C14            1.0303     3.5096     0.0111 C.ar    
  15 C15            0.9419     4.1871     1.2128 C.ar    
  16 C16            0.7421     5.5549     1.2220 C.ar    
  17 C17            0.6313     6.2453     0.0296 C.ar    
  18 C18            0.7206     5.5680    -1.1721 C.ar    
  19 C19            0.9246     4.2008    -1.1814 C.ar    
  20 H20           -2.1336    -0.1769     0.0218 H       
  21 H21            2.1992    -2.5631    -0.0357 H       
  22 H22            2.1446    -0.1184    -0.0223 H       
  23 H23           -3.3231    -4.5792    -0.2558 H       
  24 H24           -2.1698    -4.1282    -1.5350 H       
  25 H25           -1.4364    -4.9420     1.3229 H       
  26 H26           -1.2296    -5.9482    -0.1373 H       
  27 H27            1.8174     1.7284     0.8840 H       
  28 H28            1.8004     1.7380    -0.8958 H       
  29 H29            1.0285     3.6477     2.1444 H       
  30 H30            0.6723     6.0841     2.1609 H       
  31 H31            0.4745     7.3139     0.0368 H       
  32 H32            0.6336     6.1073    -2.1038 H       
  33 H33            0.9944     3.6716    -2.1203 H       
@<TRIPOS>BOND
   1    1    2 1
   2    1   13 1
   3    2    3 ar
   4    2    7 ar
   5    3    4 ar
   6    3   20 1
   7    4    5 ar
   8    4    8 1
   9    5    6 ar
  10    5   11 1
  11    6    7 ar
  12    6   21 1
  13    7   22 1
  14    8    9 1
  15    9   10 1
  16    9   23 1
  17    9   24 1
  18   10   11 1
  19   10   25 1
  20   10   26 1
  21   11   12 2
  22   13   14 1
  23   13   27 1
  24   13   28 1
  25   14   15 ar
  26   14   19 ar
  27   15   16 ar
  28   15   29 1
  29   16   17 ar
  30   16   30 1
  31   17   18 ar
  32   17   31 1
  33   18   19 ar
  34   18   32 1
  35   19   33 1

#	End of record

