#	Name: ASD01914016
#	Creating user name:	WinNT
#	Creation time:	15. 06. 2019 20:02

#	Modifying user name:	WinNT
#	Modification time:	15. 06. 2019 20:02

#	Program:	/corina/corina34_cracker 3.40 0067  02.08.2006

@<TRIPOS>MOLECULE
ASD01914016
  49   52    0    0    0
SMALL
NO_CHARGES


@<TRIPOS>ATOM
   1 C1             0.6456    -0.2468    -0.7835 C.ar    
   2 C2             0.8603    -1.6121    -0.7813 C.ar    
   3 C3             2.1501    -2.1120    -0.7088 C.ar    
   4 C4             3.0101     0.1258    -0.6404 C.ar    
   5 C5             1.7170     0.6229    -0.7132 C.ar    
   6 O6             4.0646     0.9803    -0.5716 O.3     
   7 C7             5.3676     0.3982    -0.4989 C.3     
   8 C8             6.4029     1.4911    -0.4295 C.ar    
   9 N9             7.6806     1.1708    -0.3563 N.ar    
  10 C10            8.6248     2.0867    -0.2936 C.ar    
  11 C11            8.2990     3.4433    -0.3024 C.ar    
  12 C12            6.9511     3.8147    -0.3793 C.ar    
  13 C13            5.9982     2.8140    -0.4493 C.ar    
  14 C14            9.3590     4.4714    -0.2310 C.2     
  15 N15           10.6528     4.1013    -0.1568 N.am    
  16 O16            9.0636     5.6505    -0.2393 O.2     
  17 C17           11.7083     5.1166    -0.1931 C.3     
  18 C18            3.2254    -1.2445    -0.6383 C.ar    
  19 F19            2.3579    -3.4469    -0.7064 F       
  20 C20           11.7799     5.8395    -1.5135 C.ar    
  21 C21           11.7012     6.0564     1.0241 C.3     
  22 C22           12.6276     5.0413     1.7143 C.3     
  23 C23           13.0711     4.6065     0.3045 C.3     
  24 C24           11.1489     5.3127    -2.6249 C.ar    
  25 C25           11.2145     5.9758    -3.8361 C.ar    
  26 C26           11.9107     7.1658    -3.9357 C.ar    
  27 C27           12.5410     7.6930    -2.8241 C.ar    
  28 C28           12.4717     7.0322    -1.6119 C.ar    
  29 H29           -0.3606     0.1408    -0.8446 H       
  30 H30            0.0214    -2.2901    -0.8360 H       
  31 H31            1.5477     1.6896    -0.7145 H       
  32 H32            5.4376    -0.2257     0.3922 H       
  33 H33            5.5428    -0.2125    -1.3846 H       
  34 H34            9.6601     1.7852    -0.2346 H       
  35 H35            6.6629     4.8555    -0.3882 H       
  36 H36            4.9490     3.0628    -0.5097 H       
  37 H37           10.8851     3.1627    -0.0793 H       
  38 H38            4.2312    -1.6337    -0.5813 H       
  39 H39           12.1738     7.0201     0.8344 H       
  40 H40           10.7243     6.1489     1.4986 H       
  41 H41           13.4229     5.5034     2.2992 H       
  42 H42           12.0936     4.2654     2.2628 H       
  43 H43           13.1995     3.5291     0.2001 H       
  44 H44           13.9179     5.1741    -0.0813 H       
  45 H45           10.6049     4.3830    -2.5470 H       
  46 H46           10.7221     5.5638    -4.7046 H       
  47 H47           11.9626     7.6835    -4.8821 H       
  48 H48           13.0852     8.6226    -2.9020 H       
  49 H49           12.9641     7.4441    -0.7434 H       
@<TRIPOS>BOND
   1    1    2 ar
   2    1    5 ar
   3    1   29 1
   4    2    3 ar
   5    2   30 1
   6    3   18 ar
   7    3   19 1
   8    4    5 ar
   9    4    6 1
  10    4   18 ar
  11    5   31 1
  12    6    7 1
  13    7    8 1
  14    7   32 1
  15    7   33 1
  16    8    9 ar
  17    8   13 ar
  18    9   10 ar
  19   10   11 ar
  20   10   34 1
  21   11   12 ar
  22   11   14 1
  23   12   13 ar
  24   12   35 1
  25   13   36 1
  26   14   15 am
  27   14   16 2
  28   15   17 1
  29   15   37 1
  30   17   20 1
  31   17   21 1
  32   17   23 1
  33   18   38 1
  34   20   24 ar
  35   20   28 ar
  36   21   22 1
  37   21   39 1
  38   21   40 1
  39   22   23 1
  40   22   41 1
  41   22   42 1
  42   23   43 1
  43   23   44 1
  44   24   25 ar
  45   24   45 1
  46   25   26 ar
  47   25   46 1
  48   26   27 ar
  49   26   47 1
  50   27   28 ar
  51   27   48 1
  52   28   49 1

#	End of record

