#	Name: ASD03240654
#	Creating user name:	WinNT
#	Creation time:	15. 06. 2019 20:35

#	Modifying user name:	WinNT
#	Modification time:	15. 06. 2019 20:35

#	Program:	/corina/corina34_cracker 3.40 0067  02.08.2006

@<TRIPOS>MOLECULE
ASD03240654
  60   66    0    0    0
SMALL
NO_CHARGES


@<TRIPOS>ATOM
   1 C1            -0.0166     1.3755     0.0096 C.ar    
   2 C2             0.0021    -0.0041     0.0020 C.ar    
   3 N3             1.1422    -0.6683    -0.0054 N.ar    
   4 C4             2.3145    -0.0481    -0.0053 C.ar    
   5 C5             2.3702     1.3442    -0.0124 C.ar    
   6 C6             1.1860     2.0698     0.0018 C.ar    
   7 N7             3.4820    -0.8058     0.0229 N.pl3   
   8 C8             4.3588    -0.7193     1.1010 C.ar    
   9 C9             4.9949     0.4891     1.4050 C.ar    
  10 C10            4.7640     1.6833     0.5629 C.2     
  11 N11            3.5939     2.0276    -0.0512 N.pl3   
  12 C12            4.6041    -1.8388     1.8847 C.ar    
  13 C13            5.4634    -1.7534     2.9635 C.ar    
  14 C14            6.0848    -0.5555     3.2720 C.ar    
  15 C15            5.8553     0.5655     2.4999 C.ar    
  16 N16            5.6758     2.5938     0.2860 N.2     
  17 C17            5.1462     3.5394    -0.5052 C.2     
  18 C18            3.8230     3.2038    -0.7372 C.2     
  19 C19            2.8509     3.9544    -1.5553 C.ar    
  20 C20            2.7524     5.3424    -1.4307 C.ar    
  21 C21            2.0288     3.2810    -2.4622 C.ar    
  22 C22            1.1225     3.9890    -3.2235 C.ar    
  23 C23            1.0264     5.3631    -3.0907 C.ar    
  24 C24            1.8416     6.0374    -2.1985 C.ar    
  25 C25            5.8508     4.7301    -1.0349 C.ar    
  26 C26            0.0337     6.1296    -3.9261 C.3     
  27 C27            6.8196     5.3707    -0.2628 C.ar    
  28 N28           -1.0253     5.2756    -4.4804 N.3     
  29 C29           -0.4954     7.4012    -3.2419 C.3     
  30 C30           -0.3992     8.0856    -4.6156 C.3     
  31 C31            0.6879     7.0556    -4.9651 C.3     
  32 C32            7.4732     6.4789    -0.7606 C.ar    
  33 C33            7.1683     6.9559    -2.0253 C.ar    
  34 C34            6.2062     6.3231    -2.7961 C.ar    
  35 C35            5.5514     5.2106    -2.3095 C.ar    
  36 F36            7.8108     8.0417    -2.5084 F       
  37 H37           -0.9556     1.9091     0.0170 H       
  38 H38           -0.9306    -0.5486     0.0025 H       
  39 H39            1.2002     3.1497     0.0068 H       
  40 H40            3.6866    -1.4002    -0.7158 H       
  41 H41            4.1228    -2.7770     1.6513 H       
  42 H42            5.6517    -2.6270     3.5699 H       
  43 H43            6.7510    -0.4976     4.1201 H       
  44 H44            6.3414     1.4989     2.7425 H       
  45 H45            3.3877     5.8699    -0.7346 H       
  46 H46            2.1029     2.2086    -2.5671 H       
  47 H47            0.4865     3.4698    -3.9252 H       
  48 H48            1.7612     7.1099    -2.1001 H       
  49 H49            7.0575     5.0001     0.7234 H       
  50 H50           -0.6341     4.4673    -4.9405 H       
  51 H51           -1.6810     5.0018    -3.7640 H       
  52 H52           -1.5164     7.3055    -2.8723 H       
  53 H53            0.1877     7.8140    -2.4996 H       
  54 H54           -1.3032     7.9874    -5.2167 H       
  55 H55           -0.0306     9.1103    -4.5681 H       
  56 H56            1.6944     7.3739    -4.6939 H       
  57 H57            0.6222     6.6809    -5.9866 H       
  58 H58            8.2236     6.9757    -0.1636 H       
  59 H59            5.9714     6.6991    -3.7809 H       
  60 H60            4.8017     4.7181    -2.9110 H       
@<TRIPOS>BOND
   1    1    2 ar
   2    1    6 ar
   3    1   37 1
   4    2    3 ar
   5    2   38 1
   6    3    4 ar
   7    4    5 ar
   8    4    7 1
   9    5    6 ar
  10    5   11 1
  11    6   39 1
  12    7    8 1
  13    7   40 1
  14    8    9 ar
  15    8   12 ar
  16    9   10 1
  17    9   15 ar
  18   10   11 1
  19   10   16 2
  20   11   18 1
  21   12   13 ar
  22   12   41 1
  23   13   14 ar
  24   13   42 1
  25   14   15 ar
  26   14   43 1
  27   15   44 1
  28   16   17 1
  29   17   18 2
  30   17   25 1
  31   18   19 1
  32   19   20 ar
  33   19   21 ar
  34   20   24 ar
  35   20   45 1
  36   21   22 ar
  37   21   46 1
  38   22   23 ar
  39   22   47 1
  40   23   24 ar
  41   23   26 1
  42   24   48 1
  43   25   27 ar
  44   25   35 ar
  45   26   29 1
  46   26   28 1
  47   26   31 1
  48   27   32 ar
  49   27   49 1
  50   28   50 1
  51   28   51 1
  52   29   30 1
  53   29   52 1
  54   29   53 1
  55   30   31 1
  56   30   54 1
  57   30   55 1
  58   31   56 1
  59   31   57 1
  60   32   33 ar
  61   32   58 1
  62   33   34 ar
  63   33   36 1
  64   34   35 ar
  65   34   59 1
  66   35   60 1

#	End of record

