#	Name: ASD03082061
#	Creating user name:	WinNT
#	Creation time:	15. 06. 2019 20:27

#	Modifying user name:	WinNT
#	Modification time:	15. 06. 2019 20:27

#	Program:	/corina/corina34_cracker 3.40 0067  02.08.2006

@<TRIPOS>MOLECULE
ASD03082061
  79   83    0    0    0
SMALL
NO_CHARGES


@<TRIPOS>ATOM
   1 C1            -0.0187     1.5261     0.0104 C.3     
   2 C2             0.0021    -0.0041     0.0020 C.3     
   3 N3            -1.3752    -0.5135    -0.0088 N.3     
   4 C4            -2.0910    -0.0830    -1.2166 C.3     
   5 C5            -2.1743     1.4448    -1.2445 C.3     
   6 C6            -0.7588     2.0285    -1.2323 C.3     
   7 C7            -1.3964    -1.9765     0.1224 C.3     
   8 C8            -0.8728    -2.3722     1.5045 C.3     
   9 C9            -2.9010     1.8936    -2.5139 C.3     
  10 C10           -0.8949    -3.8959     1.6412 C.3     
  11 C11           -0.3713    -4.2916     3.0233 C.3     
  12 O12           -0.3919    -5.7147     3.1510 O.3     
  13 C13            0.0449    -6.2350     4.3280 C.ar    
  14 C14            0.0521    -7.6089     4.5203 C.ar    
  15 C15            0.4965    -8.1352     5.7177 C.ar    
  16 C16            0.9339    -7.2940     6.7241 C.ar    
  17 C17            0.9273    -5.9244     6.5351 C.ar    
  18 C18            0.4896    -5.3933     5.3372 C.ar    
  19 O19           -4.2780     1.4350    -2.4712 O.3     
  20 C20           -5.0604     1.7494    -3.5222 C.2     
  21 C21           -6.4698     1.3170    -3.5475 C.ar    
  22 O22           -4.6045     2.3893    -4.4490 O.2     
  23 C23           -6.9981     0.5812    -2.4843 C.ar    
  24 C24           -8.3167     0.1803    -2.5139 C.ar    
  25 C25           -9.1216     0.5035    -3.5937 C.ar    
  26 C26           -8.6127     1.2301    -4.6522 C.ar    
  27 C27           -7.2897     1.6470    -4.6370 C.ar    
  28 N28           -6.7733     2.3817    -5.7064 N.am    
  29 C29           -6.8121     3.7191    -5.7524 C.2     
  30 C30           -6.1716     4.1918    -7.0392 C.3     
  31 C31           -5.7514     2.8817    -7.7363 C.3     
  32 C32           -6.1936     1.8068    -6.7675 C.2     
  33 O33           -7.2857     4.4375    -4.8986 O.2     
  34 O34           -6.0520     0.6139    -6.9297 O.2     
  35 C35            1.3948     2.0486    -0.0003 C.ar    
  36 C36            1.8456     2.8440     1.0365 C.ar    
  37 C37            3.1421     3.3233     1.0267 C.ar    
  38 C38            3.9881     3.0067    -0.0197 C.ar    
  39 C39            3.5377     2.2104    -1.0560 C.ar    
  40 C40            2.2424     1.7276    -1.0440 C.ar    
  41 C41           -6.4696     2.7318    -9.0789 C.3     
  42 H42           -0.5300     1.8782     0.9064 H       
  43 H43            0.5262    -0.3553    -0.8868 H       
  44 H44            0.5159    -0.3652     0.8929 H       
  45 H45           -1.5571    -0.4339    -2.0997 H       
  46 H46           -3.0975    -0.5015    -1.2107 H       
  47 H47           -2.7201     1.7956    -0.3687 H       
  48 H48           -0.8137     3.1169    -1.2084 H       
  49 H49           -0.2254     1.7094    -2.1277 H       
  50 H50           -2.4182    -2.3371     0.0041 H       
  51 H51           -0.7634    -2.4194    -0.6464 H       
  52 H52            0.1490    -2.0115     1.6229 H       
  53 H53           -1.5058    -1.9292     2.2734 H       
  54 H54           -2.8822     2.9816    -2.5779 H       
  55 H55           -2.4037     1.4697    -3.3864 H       
  56 H56           -1.9167    -4.2565     1.5228 H       
  57 H57           -0.2619    -4.3389     0.8724 H       
  58 H58            0.6505    -3.9310     3.1417 H       
  59 H59           -1.0043    -3.8486     3.7922 H       
  60 H60           -0.2898    -8.2664     3.7347 H       
  61 H61            0.5020    -9.2047     5.8680 H       
  62 H62            1.2810    -7.7075     7.6595 H       
  63 H63            1.2688    -5.2693     7.3229 H       
  64 H64            0.4847    -4.3234     5.1901 H       
  65 H65           -6.3743     0.3264    -1.6403 H       
  66 H66           -8.7240    -0.3888    -1.6914 H       
  67 H67          -10.1536     0.1852    -3.6082 H       
  68 H68           -9.2465     1.4776    -5.4909 H       
  69 H69           -6.8923     4.7367    -7.6489 H       
  70 H70           -5.2996     4.8111    -6.8288 H       
  71 H71           -4.6704     2.8494    -7.8727 H       
  72 H72            1.1846     3.0914     1.8541 H       
  73 H73            3.4941     3.9454     1.8364 H       
  74 H74            5.0009     3.3817    -0.0277 H       
  75 H75            4.1985     1.9633    -1.8737 H       
  76 H76            1.8905     1.1055    -1.8537 H       
  77 H77           -6.2139     3.5727    -9.7236 H       
  78 H78           -6.1597     1.8015    -9.5549 H       
  79 H79           -7.5470     2.7146    -8.9146 H       
@<TRIPOS>BOND
   1    1    2 1
   2    1   35 1
   3    1    6 1
   4    1   42 1
   5    2    3 1
   6    2   43 1
   7    2   44 1
   8    3    4 1
   9    3    7 1
  10    4    5 1
  11    4   45 1
  12    4   46 1
  13    5    6 1
  14    5    9 1
  15    5   47 1
  16    6   48 1
  17    6   49 1
  18    7    8 1
  19    7   50 1
  20    7   51 1
  21    8   10 1
  22    8   52 1
  23    8   53 1
  24    9   19 1
  25    9   54 1
  26    9   55 1
  27   10   11 1
  28   10   56 1
  29   10   57 1
  30   11   12 1
  31   11   58 1
  32   11   59 1
  33   12   13 1
  34   13   14 ar
  35   13   18 ar
  36   14   15 ar
  37   14   60 1
  38   15   16 ar
  39   15   61 1
  40   16   17 ar
  41   16   62 1
  42   17   18 ar
  43   17   63 1
  44   18   64 1
  45   19   20 1
  46   20   21 1
  47   20   22 2
  48   21   23 ar
  49   21   27 ar
  50   23   24 ar
  51   23   65 1
  52   24   25 ar
  53   24   66 1
  54   25   26 ar
  55   25   67 1
  56   26   27 ar
  57   26   68 1
  58   27   28 1
  59   28   29 am
  60   28   32 am
  61   29   30 1
  62   29   33 2
  63   30   31 1
  64   30   69 1
  65   30   70 1
  66   31   32 1
  67   31   41 1
  68   31   71 1
  69   32   34 2
  70   35   36 ar
  71   35   40 ar
  72   36   37 ar
  73   36   72 1
  74   37   38 ar
  75   37   73 1
  76   38   39 ar
  77   38   74 1
  78   39   40 ar
  79   39   75 1
  80   40   76 1
  81   41   77 1
  82   41   78 1
  83   41   79 1

#	End of record

