#	Name: ASD08830137
#	Creating user name:	WinNT
#	Creation time:	15. 06. 2019 21:19

#	Modifying user name:	WinNT
#	Modification time:	15. 06. 2019 21:19

#	Program:	/corina/corina34_cracker 3.40 0067  02.08.2006

@<TRIPOS>MOLECULE
ASD08830137
  41   42    0    0    0
SMALL
NO_CHARGES


@<TRIPOS>ATOM
   1 C1            -0.0179     1.4677     0.0101 C.ar    
   2 C2             0.0021    -0.0041     0.0020 C.2     
   3 C3            -1.2926    -0.7753     0.0102 C.3     
   4 C4            -0.9927    -2.2755    -0.0007 C.3     
   5 N5            -2.2547    -3.0273     0.0073 N.3     
   6 O6             1.0602    -0.5960    -0.0113 O.2     
   7 C7             1.1816     2.1856     0.0025 C.ar    
   8 C8            -0.0555     4.2446     0.0255 C.ar    
   9 C9            -1.2493     3.5370     0.0272 C.ar    
  10 C10           -2.0181    -4.4568    -0.2410 C.3     
  11 C11           -3.3490    -5.2097    -0.1649 C.3     
  12 O12           -4.2665    -4.6418    -1.1035 O.3     
  13 C13           -4.5205    -3.2506    -0.8906 C.3     
  14 C14           -3.2015    -2.4779    -0.9741 C.3     
  15 C15            1.1569     3.5698     0.0102 C.ar    
  16 C16           -1.2364     2.1527     0.0196 C.ar    
  17 O17            2.3224     4.2690     0.0033 O.3     
  18 C18            2.2237     5.6946     0.0119 C.3     
  19 O19           -2.4333     4.2043     0.0422 O.3     
  20 C20           -2.3733     5.6319     0.0556 C.3     
  21 H21           -1.8592    -0.5245     0.9070 H       
  22 H22           -1.8762    -0.5150    -0.8728 H       
  23 H23           -0.4261    -2.5263    -0.8975 H       
  24 H24           -0.4091    -2.5358     0.8824 H       
  25 H25            2.1258     1.6614    -0.0090 H       
  26 H26           -0.0702     5.3245     0.0311 H       
  27 H27           -1.5824    -4.5869    -1.2316 H       
  28 H28           -1.3346    -4.8488     0.5123 H       
  29 H29           -3.1869    -6.2606    -0.4046 H       
  30 H30           -3.7584    -5.1242     0.8417 H       
  31 H31           -5.2057    -2.8846    -1.6552 H       
  32 H32           -4.9640    -3.1082     0.0948 H       
  33 H33           -3.3819    -1.4252    -0.7560 H       
  34 H34           -2.7847    -2.5763    -1.9764 H       
  35 H35           -2.1661     1.6030     0.0206 H       
  36 H36            1.6778     6.0263    -0.8713 H       
  37 H37            1.6942     6.0167     0.9086 H       
  38 H38            3.2238     6.1280     0.0051 H       
  39 H39           -1.8382     5.9648     0.9450 H       
  40 H40           -1.8511     5.9820    -0.8348 H       
  41 H41           -3.3847     6.0380     0.0668 H       
@<TRIPOS>BOND
   1    1    2 1
   2    1    7 ar
   3    1   16 ar
   4    2    3 1
   5    2    6 2
   6    3    4 1
   7    3   21 1
   8    3   22 1
   9    4    5 1
  10    4   23 1
  11    4   24 1
  12    5   10 1
  13    5   14 1
  14    7   15 ar
  15    7   25 1
  16    8    9 ar
  17    8   15 ar
  18    8   26 1
  19    9   16 ar
  20    9   19 1
  21   10   11 1
  22   10   27 1
  23   10   28 1
  24   11   12 1
  25   11   29 1
  26   11   30 1
  27   12   13 1
  28   13   14 1
  29   13   31 1
  30   13   32 1
  31   14   33 1
  32   14   34 1
  33   15   17 1
  34   16   35 1
  35   17   18 1
  36   18   36 1
  37   18   37 1
  38   18   38 1
  39   19   20 1
  40   20   39 1
  41   20   40 1
  42   20   41 1

#	End of record

