#	Name: ASD05490105
#	Creating user name:	WinNT
#	Creation time:	15. 06. 2019 21:01

#	Modifying user name:	WinNT
#	Modification time:	15. 06. 2019 21:01

#	Program:	/corina/corina34_cracker 3.40 0067  02.08.2006

@<TRIPOS>MOLECULE
ASD05490105
  68   72    0    0    0
SMALL
NO_CHARGES


@<TRIPOS>ATOM
   1 O1            -2.2665     1.8171     0.0253 O.2     
   2 N2            -0.0178     1.4608     0.0101 N.am    
   3 O3             4.5863     2.8160    -0.0274 O.3     
   4 N4             2.8511     4.3367    -0.0019 N.ar    
   5 C5             1.5540     4.6376     0.0121 C.ar    
   6 C6             3.2565     3.0770    -0.0133 C.ar    
   7 N7             2.4054     2.0644    -0.0102 N.ar    
   8 C8             1.0946     2.2826     0.0039 C.ar    
   9 C9             0.6266     3.5971     0.0154 C.ar    
  10 N10            1.1342     5.9598     0.0237 N.pl3   
  11 C11           -1.1223     2.2312     0.0189 C.2     
  12 N12           -0.7663     3.5310     0.0284 N.am    
  13 C13            5.4681     3.9405    -0.0289 C.3     
  14 C14            6.9178     3.4517    -0.0454 C.3     
  15 O15            7.1758     2.7674    -1.2731 O.3     
  16 C16            8.5094     2.2677    -1.3909 C.3     
  17 C17            0.0021    -0.0041     0.0020 C.3     
  18 C18            0.0225    -0.5140     1.4200 C.ar    
  19 C19           -1.1674    -0.7635     2.0797 C.ar    
  20 C20           -1.1546    -1.2305     3.3784 C.ar    
  21 C21            0.0599    -1.4511     4.0247 C.ar    
  22 C22            1.2555    -1.1986     3.3552 C.ar    
  23 C23            1.2310    -0.7362     2.0550 C.ar    
  24 C24            0.0800    -1.9528     5.4211 C.ar    
  25 C25            1.2946    -2.1734     6.0675 C.ar    
  26 C26           -1.1155    -2.1995     6.0926 C.ar    
  27 C27           -1.0910    -2.6661     7.3915 C.ar    
  28 C28            0.1173    -2.8887     8.0263 C.ar    
  29 C29            1.3074    -2.6400     7.3662 C.ar    
  30 C30            1.9872    -5.2291     8.1622 C.3     
  31 C31            2.6770    -6.4920     8.7107 C.3     
  32 C32            4.1889    -6.1707     8.6826 C.3     
  33 C33            4.2139    -4.6216     8.6762 C.3     
  34 N34            3.0557    -4.2666     7.8168 N.3     
  35 C35            2.6203    -2.8856     8.0642 C.3     
  36 C36           -2.3833    -2.9329     8.1194 C.3     
  37 F37           -3.4617    -2.6354     7.2792 F       
  38 F38           -2.4396    -4.2805     8.4910 F       
  39 F39           -2.4484    -2.1305     9.2635 F       
  40 H40            1.7881     6.6762     0.0216 H       
  41 H41            0.1868     6.1678     0.0339 H       
  42 H42           -1.3727     4.2880     0.0359 H       
  43 H43            5.2796     4.5488    -0.9135 H       
  44 H44            5.2964     4.5381     0.8664 H       
  45 H45            7.5900     4.3052     0.0430 H       
  46 H46            7.0817     2.7720     0.7908 H       
  47 H47            8.7062     1.5635    -0.5826 H       
  48 H48            8.6245     1.7620    -2.3496 H       
  49 H49            9.2146     3.0966    -1.3305 H       
  50 H50           -0.8878    -0.3767    -0.5053 H       
  51 H51            0.8920    -0.3525    -0.5222 H       
  52 H52           -2.1082    -0.5921     1.5778 H       
  53 H53           -2.0843    -1.4243     3.8928 H       
  54 H54            2.1997    -1.3679     3.8515 H       
  55 H55            2.1571    -0.5405     1.5350 H       
  56 H56            2.2243    -1.9799     5.5530 H       
  57 H57           -2.0597    -2.0256     5.5980 H       
  58 H58            0.1319    -3.2535     9.0427 H       
  59 H59            1.4099    -5.4784     7.2719 H       
  60 H60            1.3346    -4.8020     8.9236 H       
  61 H61            2.3507    -6.6878     9.7322 H       
  62 H62            2.4603    -7.3488     8.0727 H       
  63 H63            4.6827    -6.5608     9.5726 H       
  64 H64            4.6509    -6.5677     7.7787 H       
  65 H65            4.0789    -4.2305     9.6846 H       
  66 H66            5.1430    -4.2536     8.2409 H       
  67 H67            3.3705    -2.1939     7.6810 H       
  68 H68            2.4965    -2.7301     9.1360 H       
@<TRIPOS>BOND
   1    1   11 2
   2    2   17 1
   3    2    8 1
   4    2   11 am
   5    3   13 1
   6    3    6 1
   7    4    5 ar
   8    4    6 ar
   9    5   10 1
  10    5    9 ar
  11    6    7 ar
  12    7    8 ar
  13    8    9 ar
  14    9   12 1
  15   10   40 1
  16   10   41 1
  17   11   12 am
  18   12   42 1
  19   13   14 1
  20   13   43 1
  21   13   44 1
  22   14   15 1
  23   14   45 1
  24   14   46 1
  25   15   16 1
  26   16   47 1
  27   16   48 1
  28   16   49 1
  29   17   18 1
  30   17   50 1
  31   17   51 1
  32   18   19 ar
  33   18   23 ar
  34   19   20 ar
  35   19   52 1
  36   20   21 ar
  37   20   53 1
  38   21   22 ar
  39   21   24 1
  40   22   23 ar
  41   22   54 1
  42   23   55 1
  43   24   25 ar
  44   24   26 ar
  45   25   29 ar
  46   25   56 1
  47   26   27 ar
  48   26   57 1
  49   27   28 ar
  50   27   36 1
  51   28   29 ar
  52   28   58 1
  53   29   35 1
  54   30   31 1
  55   30   34 1
  56   30   59 1
  57   30   60 1
  58   31   32 1
  59   31   61 1
  60   31   62 1
  61   32   33 1
  62   32   63 1
  63   32   64 1
  64   33   34 1
  65   33   65 1
  66   33   66 1
  67   34   35 1
  68   35   67 1
  69   35   68 1
  70   36   37 1
  71   36   38 1
  72   36   39 1

#	End of record

