#	Name: ASD04010008
#	Creating user name:	WinNT
#	Creation time:	15. 06. 2019 20:48

#	Modifying user name:	WinNT
#	Modification time:	15. 06. 2019 20:48

#	Program:	/corina/corina34_cracker 3.40 0067  02.08.2006

@<TRIPOS>MOLECULE
ASD04010008
  21   22    0    0    0
SMALL
NO_CHARGES


@<TRIPOS>ATOM
   1 O1            -0.0164     1.3547     0.0095 O.3     
   2 C2             0.0021    -0.0041     0.0020 C.ar    
   3 C3             0.0229    -0.7058     1.1962 C.ar    
   4 Br4            0.0251     0.2281     2.8405 Br      
   5 C5             0.0417    -2.0893     1.1872 C.ar    
   6 C6             0.0398    -2.7804    -0.0114 C.ar    
   7 C7             0.0196    -2.0952    -1.2093 C.ar    
   8 C8            -0.0057    -0.7004    -1.2127 C.ar    
   9 C9            -0.0280     0.0388    -2.4924 C.2     
  10 N10           -1.0402     0.0186    -3.4198 N.pl3   
  11 C11           -0.6907     0.8264    -4.4629 C.2     
  12 C12            0.5267     1.3550    -4.2061 C.2     
  13 C13            0.9502     0.8660    -2.9581 C.2     
  14 Br14           2.5811     1.2712    -2.0911 Br      
  15 Br15           1.4845     2.5441    -5.3216 Br      
  16 Br16          -1.7332     1.1512    -6.0068 Br      
  17 H17            0.8616     1.7600     0.0033 H       
  18 H18            0.0583    -2.6325     2.1205 H       
  19 H19            0.0546    -3.8603    -0.0096 H       
  20 H20            0.0186    -2.6383    -2.1428 H       
  21 H21           -1.8655    -0.4857    -3.3462 H       
@<TRIPOS>BOND
   1    1    2 1
   2    1   17 1
   3    2    3 ar
   4    2    8 ar
   5    3    4 1
   6    3    5 ar
   7    5    6 ar
   8    5   18 1
   9    6    7 ar
  10    6   19 1
  11    7    8 ar
  12    7   20 1
  13    8    9 1
  14    9   10 1
  15    9   13 2
  16   10   11 1
  17   10   21 1
  18   11   12 2
  19   11   16 1
  20   12   13 1
  21   12   15 1
  22   13   14 1

#	End of record

