#	Name: ASD04882044
#	Creating user name:	WinNT
#	Creation time:	15. 06. 2019 20:53

#	Modifying user name:	WinNT
#	Modification time:	15. 06. 2019 20:53

#	Program:	/corina/corina34_cracker 3.40 0067  02.08.2006

@<TRIPOS>MOLECULE
ASD04882044
  80   84    0    0    0
SMALL
NO_CHARGES


@<TRIPOS>ATOM
   1 C1             1.5171     1.4362     1.7944 C.ar    
   2 C2             1.4794     0.0560     1.8135 C.ar    
   3 C3             2.6605    -0.6682     1.9183 C.ar    
   4 C4             3.8755    -0.0007     2.0034 C.ar    
   5 C5             3.9059     1.3801     1.9837 C.ar    
   6 C6             2.7287     2.0977     1.8794 C.ar    
   7 C7             5.1590    -0.7820     2.1176 C.3     
   8 N8             2.6260    -2.0644     1.9384 N.3     
   9 C9             3.2416    -2.6239     0.7270 C.3     
  10 C10            3.2556    -4.1512     0.8239 C.3     
  11 N11            1.8800    -4.6418     0.9868 N.3     
  12 C12            1.2643    -4.0823     2.1982 C.3     
  13 C13            1.2503    -2.5549     2.1013 C.3     
  14 C14            1.8456    -6.0336     1.0068 C.ar    
  15 C15            2.1832    -6.7567    -0.1406 C.ar    
  16 C16            2.1490    -8.1382    -0.1204 C.ar    
  17 C17            1.7766    -8.8079     1.0485 C.ar    
  18 C18            1.4402    -8.0787     2.1925 C.ar    
  19 C19            1.4810    -6.7023     2.1699 C.ar    
  20 C20            1.7382   -10.2825     1.0746 C.2     
  21 N21            1.3789   -10.9274     2.2023 N.am    
  22 O22            2.0306   -10.9161     0.0788 O.2     
  23 C23            1.3408   -12.3916     2.2282 C.3     
  24 C24            0.9052   -12.8659     3.6161 C.3     
  25 C25            0.8654   -14.3952     3.6432 C.3     
  26 N26            0.4483   -14.8493     4.9722 N.am    
  27 C27           -0.9456   -15.0821     5.3680 C.3     
  28 C28           -0.9356   -15.1136     6.9125 C.3     
  29 C29            0.5195   -15.5439     7.2097 C.3     
  30 C30            1.2936   -15.1118     5.9838 C.2     
  31 O31            2.5007   -15.0099     5.9247 O.2     
  32 N32            2.5555    -6.0816    -1.3105 N.am    
  33 C33            3.3607    -6.6831    -2.2084 C.2     
  34 O34            3.7002    -7.8386    -2.0422 O.2     
  35 C35            3.8309    -5.9380    -3.3952 C.ar    
  36 C36            3.4430    -4.6114    -3.5890 C.ar    
  37 C37            4.6697    -6.5563    -4.3243 C.ar    
  38 C38            5.1049    -5.8553    -5.4296 C.ar    
  39 C39            4.7122    -4.5419    -5.6185 C.ar    
  40 C40            3.8855    -3.9216    -4.6990 C.ar    
  41 C41            6.0103    -6.5211    -6.4336 C.3     
  42 F42            5.2364    -7.1401    -7.4211 F       
  43 F43            6.8383    -5.5604    -7.0240 F       
  44 F44            6.7968    -7.4810    -5.7877 F       
  45 H45            0.5997     1.9996     1.7084 H       
  46 H46            0.5330    -0.4600     1.7475 H       
  47 H47            4.8503     1.8998     2.0498 H       
  48 H48            2.7553     3.1773     1.8638 H       
  49 H49            5.5089    -1.0536     1.1217 H       
  50 H50            5.9133    -0.1711     2.6137 H       
  51 H51            4.9833    -1.6863     2.7002 H       
  52 H52            2.6656    -2.3202    -0.1472 H       
  53 H53            4.2635    -2.2559     0.6352 H       
  54 H54            3.6855    -4.5695    -0.0863 H       
  55 H55            3.8543    -4.4557     1.6824 H       
  56 H56            0.2424    -4.4502     2.2900 H       
  57 H57            1.8404    -4.3859     3.0723 H       
  58 H58            0.8205    -2.1367     3.0114 H       
  59 H59            0.6517    -2.2505     1.2428 H       
  60 H60            2.4091    -8.6991    -1.0060 H       
  61 H61            1.1519    -8.5952     3.0961 H       
  62 H62            1.2207    -6.1410     3.0550 H       
  63 H63            1.1456   -10.4220     2.9966 H       
  64 H64            0.6310   -12.7499     1.4825 H       
  65 H65            2.3324   -12.7850     2.0045 H       
  66 H66            1.6150   -12.5077     4.3618 H       
  67 H67           -0.0864   -12.4726     3.8399 H       
  68 H68            0.1556   -14.7534     2.8975 H       
  69 H69            1.8570   -14.7885     3.4195 H       
  70 H70           -1.5796   -14.2704     5.0114 H       
  71 H71           -1.2954   -16.0362     4.9736 H       
  72 H72           -1.1420   -14.1256     7.3241 H       
  73 H73           -1.6451   -15.8487     7.2923 H       
  74 H74            0.8934   -15.0363     8.0989 H       
  75 H75            0.5799   -16.6252     7.3328 H       
  76 H76            2.2337    -5.1813    -1.4742 H       
  77 H77            2.7976    -4.1260    -2.8719 H       
  78 H78            4.9775    -7.5811    -4.1777 H       
  79 H79            5.0561    -3.9974    -6.4855 H       
  80 H80            3.5824    -2.8964    -4.8525 H       
@<TRIPOS>BOND
   1    1    2 ar
   2    1    6 ar
   3    1   45 1
   4    2    3 ar
   5    2   46 1
   6    3    4 ar
   7    3    8 1
   8    4    5 ar
   9    4    7 1
  10    5    6 ar
  11    5   47 1
  12    6   48 1
  13    7   49 1
  14    7   50 1
  15    7   51 1
  16    8    9 1
  17    8   13 1
  18    9   10 1
  19    9   52 1
  20    9   53 1
  21   10   11 1
  22   10   54 1
  23   10   55 1
  24   11   12 1
  25   11   14 1
  26   12   13 1
  27   12   56 1
  28   12   57 1
  29   13   58 1
  30   13   59 1
  31   14   15 ar
  32   14   19 ar
  33   15   16 ar
  34   15   32 1
  35   16   17 ar
  36   16   60 1
  37   17   18 ar
  38   17   20 1
  39   18   19 ar
  40   18   61 1
  41   19   62 1
  42   20   21 am
  43   20   22 2
  44   21   23 1
  45   21   63 1
  46   23   24 1
  47   23   64 1
  48   23   65 1
  49   24   25 1
  50   24   66 1
  51   24   67 1
  52   25   26 1
  53   25   68 1
  54   25   69 1
  55   26   27 1
  56   26   30 am
  57   27   28 1
  58   27   70 1
  59   27   71 1
  60   28   29 1
  61   28   72 1
  62   28   73 1
  63   29   30 1
  64   29   74 1
  65   29   75 1
  66   30   31 2
  67   32   33 am
  68   32   76 1
  69   33   34 2
  70   33   35 1
  71   35   36 ar
  72   35   37 ar
  73   36   40 ar
  74   36   77 1
  75   37   38 ar
  76   37   78 1
  77   38   39 ar
  78   38   41 1
  79   39   40 ar
  80   39   79 1
  81   40   80 1
  82   41   42 1
  83   41   43 1
  84   41   44 1

#	End of record

