#	Name: ASD01680002
#	Creating user name:	WinNT
#	Creation time:	15. 06. 2019 19:22

#	Modifying user name:	WinNT
#	Modification time:	15. 06. 2019 19:22

#	Program:	/corina/corina34_cracker 3.40 0067  02.08.2006

@<TRIPOS>MOLECULE
ASD01680002
 136  142    0    0    0
SMALL
NO_CHARGES


@<TRIPOS>ATOM
   1 C1            -0.0822     1.2539     0.5125 C.ar    
   2 C2             0.0054     0.0161    -0.1085 C.ar    
   3 C3            -1.1143    -0.5489    -0.6911 C.ar    
   4 C4            -2.3262     0.1146    -0.6583 C.ar    
   5 C5            -2.4258     1.3535    -0.0399 C.ar    
   6 C6            -1.3027     1.9248     0.5537 C.ar    
   7 N7             1.0524     1.8251     1.1015 N.pl3   
   8 S8            -1.4215     3.4966     1.3410 S.3     
   9 C9            -1.8514     3.0656     3.0498 C.3     
  10 C10           -1.9932     4.3443     3.8780 C.3     
  11 N11           -2.3413     3.9952     5.2618 N.3     
  12 N12           -3.6547     2.0251    -0.0078 N.am    
  13 C13           -4.8056     1.3286    -0.0894 C.2     
  14 C14           -6.1025     2.0260     0.0416 C.ar    
  15 O15           -4.7773     0.1268    -0.2707 O.2     
  16 C16           -7.2933     1.3075    -0.0426 C.ar    
  17 C17           -8.5112     1.9726     0.0819 C.ar    
  18 C18           -8.5311     3.3539     0.2900 C.ar    
  19 C19           -7.3473     4.0599     0.3723 C.ar    
  20 C20           -6.1368     3.4061     0.2556 C.ar    
  21 C21           -9.7795     1.2184    -0.0066 C.2     
  22 N22          -10.9568     1.8633     0.1140 N.am    
  23 O23           -9.7606     0.0164    -0.1881 O.2     
  24 C24          -12.1582     1.1716    -0.0875 C.ar    
  25 C25          -12.1802     0.0323    -0.8806 C.ar    
  26 C26          -13.3648    -0.6511    -1.0803 C.ar    
  27 C27          -14.5341    -0.2053    -0.4916 C.ar    
  28 C28          -14.5241     0.9321     0.3031 C.ar    
  29 C29          -13.3318     1.6221     0.5122 C.ar    
  30 S30          -13.3114     3.0669     1.5206 S.3     
  31 C31          -12.9790     2.4043     3.1762 C.3     
  32 C32          -12.9294     3.5535     4.1850 C.3     
  33 N33          -12.6602     3.0169     5.5257 N.3     
  34 N34          -15.7089     1.3825     0.8981 N.pl3   
  35 C35           -1.0124    -1.8931    -1.3648 C.3     
  36 C36          -13.3824    -1.8865    -1.9431 C.3     
  37 C37           -0.5547    -2.9401    -0.3474 C.3     
  38 C38           -2.3808    -2.2887    -1.9233 C.3     
  39 C39            0.0018    -1.8151    -2.5078 C.3     
  40 C40          -11.9723    -2.1612    -2.4692 C.3     
  41 C41          -13.8592    -3.0808    -1.1141 C.3     
  42 C42          -14.3337    -1.6717    -3.1220 C.3     
  43 C43            2.3336     1.1157     1.0627 C.3     
  44 C44            3.0349     1.4160    -0.2370 C.2     
  45 C45            3.2071     1.5758     2.2316 C.3     
  46 O46            4.2342     0.8708    -0.4941 O.3     
  47 O47            2.5175     2.1475    -1.0476 O.2     
  48 C48            2.5637     1.1659     3.5312 C.ar    
  49 C49            1.7684     2.0399     4.2063 C.ar    
  50 C50            1.1646     1.6785     5.4094 C.ar    
  51 C51            1.3530     0.4413     5.9441 C.ar    
  52 C52            2.1677    -0.4885     5.2755 C.ar    
  53 C53            2.7771    -0.1230     4.0494 C.ar    
  54 C54            2.3854    -1.7755     5.7964 C.ar    
  55 C55            3.1803    -2.6497     5.1210 C.ar    
  56 C56            3.7842    -2.2882     3.9180 C.ar    
  57 C57            3.5918    -1.0527     3.3808 C.ar    
  58 C58          -19.3013     1.1869    -1.7510 C.ar    
  59 C59          -19.8480     0.9825    -2.9805 C.ar    
  60 C60          -19.8075     1.9754    -3.9578 C.ar    
  61 C61          -19.2198     3.1778    -3.7113 C.ar    
  62 C62          -18.6450     3.4258    -2.4530 C.ar    
  63 C63          -18.6860     2.4163    -1.4593 C.ar    
  64 C64          -18.0298     4.6553    -2.1612 C.ar    
  65 C65          -17.4846     4.8602    -0.9312 C.ar    
  66 C66          -17.5250     3.8674     0.0461 C.ar    
  67 C67          -18.1111     2.6643    -0.2011 C.ar    
  68 C68          -18.1444     1.6038     0.8692 C.3     
  69 C69          -16.9606     0.6528     0.6818 C.3     
  70 C70          -17.0616    -0.4766     1.6744 C.2     
  71 O71          -18.1326    -1.2858     1.6637 O.3     
  72 O72          -16.1786    -0.6538     2.4799 O.2     
  73 H73            0.9499    -0.5068    -0.1371 H       
  74 H74           -3.1974    -0.3314    -1.1150 H       
  75 H75            0.9902     2.6904     1.5354 H       
  76 H76           -2.7946     2.5194     3.0605 H       
  77 H77           -1.0655     2.4420     3.4759 H       
  78 H78           -1.0500     4.8905     3.8674 H       
  79 H79           -2.7791     4.9679     3.4519 H       
  80 H80           -1.6603     3.3648     5.6580 H       
  81 H81           -2.4407     4.8234     5.8296 H       
  82 H82           -3.6773     2.9915     0.0732 H       
  83 H83           -7.2723     0.2399    -0.2039 H       
  84 H84           -9.4745     3.8707     0.3862 H       
  85 H85           -7.3683     5.1276     0.5329 H       
  86 H86           -5.2145     3.9642     0.3213 H       
  87 H87          -10.9723     2.8064     0.3404 H       
  88 H88          -11.2700    -0.3203    -1.3428 H       
  89 H89          -15.4569    -0.7433    -0.6511 H       
  90 H90          -13.7712     1.7097     3.4554 H       
  91 H91          -12.0223     1.8820     3.1731 H       
  92 H92          -12.1371     4.2481     3.9058 H       
  93 H93          -13.8861     4.0758     4.1880 H       
  94 H94          -11.8101     2.4734     5.5337 H       
  95 H95          -12.6226     3.7570     6.2105 H       
  96 H96          -15.7008     2.1777     1.4535 H       
  97 H97           -1.2772    -2.9957     0.4668 H       
  98 H98           -0.4810    -3.9123    -0.8347 H       
  99 H99            0.4202    -2.6583     0.0504 H       
 100 H100          -2.7069    -1.5427    -2.6481 H       
 101 H101          -2.3071    -3.2609    -2.4106 H       
 102 H102          -3.1033    -2.3442    -1.1090 H       
 103 H103           0.9766    -1.5333    -2.1099 H       
 104 H104           0.0754    -2.7874    -2.9951 H       
 105 H105          -0.3243    -1.0692    -3.2326 H       
 106 H106         -11.2945    -2.3143    -1.6294 H       
 107 H107         -11.9850    -3.0548    -3.0933 H       
 108 H108         -11.6326    -1.3104    -3.0598 H       
 109 H109         -14.8638    -2.8851    -0.7393 H       
 110 H110         -13.8719    -3.9744    -1.7382 H       
 111 H111         -13.1814    -3.2338    -0.2742 H       
 112 H112         -13.9941    -0.8208    -3.7126 H       
 113 H113         -14.3465    -2.5652    -3.7461 H       
 114 H114         -15.3384    -1.4759    -2.7471 H       
 115 H115           2.1575     0.0429     1.1410 H       
 116 H116           4.1919     1.1154     2.1525 H       
 117 H117           3.3099     2.6606     2.2033 H       
 118 H118           4.6449     1.0928    -1.3410 H       
 119 H119           1.6030     3.0284     3.8040 H       
 120 H120           0.5381     2.3911     5.9252 H       
 121 H121           0.8793     0.1754     6.8775 H       
 122 H122           1.9245    -2.0692     6.7279 H       
 123 H123           3.3459    -3.6381     5.5234 H       
 124 H124           4.4108    -3.0008     3.4022 H       
 125 H125           4.0663    -0.7865     2.4478 H       
 126 H126         -19.3440     0.4100    -1.0020 H       
 127 H127         -20.3199     0.0367    -3.2022 H       
 128 H128         -20.2489     1.7875    -4.9255 H       
 129 H129         -19.1954     3.9375    -4.4785 H       
 130 H130         -17.9901     5.4334    -2.9091 H       
 131 H131         -17.0125     5.8059    -0.7095 H       
 132 H132         -17.0842     4.0555     1.0140 H       
 133 H133         -18.0800     2.0752     1.8499 H       
 134 H134         -19.0762     1.0430     0.7961 H       
 135 H135         -16.9756     0.2491    -0.3306 H       
 136 H136         -18.1526    -1.9962     2.3195 H       
@<TRIPOS>BOND
   1    1    2 ar
   2    1    7 1
   3    1    6 ar
   4    2    3 ar
   5    2   73 1
   6    3    4 ar
   7    3   35 1
   8    4    5 ar
   9    4   74 1
  10    5    6 ar
  11    5   12 1
  12    6    8 1
  13    7   43 1
  14    7   75 1
  15    8    9 1
  16    9   10 1
  17    9   76 1
  18    9   77 1
  19   10   11 1
  20   10   78 1
  21   10   79 1
  22   11   80 1
  23   11   81 1
  24   12   13 am
  25   12   82 1
  26   13   14 1
  27   13   15 2
  28   14   16 ar
  29   14   20 ar
  30   16   17 ar
  31   16   83 1
  32   17   18 ar
  33   17   21 1
  34   18   19 ar
  35   18   84 1
  36   19   20 ar
  37   19   85 1
  38   20   86 1
  39   21   22 am
  40   21   23 2
  41   22   24 1
  42   22   87 1
  43   24   25 ar
  44   24   29 ar
  45   25   26 ar
  46   25   88 1
  47   26   27 ar
  48   26   36 1
  49   27   28 ar
  50   27   89 1
  51   28   29 ar
  52   28   34 1
  53   29   30 1
  54   30   31 1
  55   31   32 1
  56   31   90 1
  57   31   91 1
  58   32   33 1
  59   32   92 1
  60   32   93 1
  61   33   94 1
  62   33   95 1
  63   34   69 1
  64   34   96 1
  65   35   37 1
  66   35   38 1
  67   35   39 1
  68   36   40 1
  69   36   41 1
  70   36   42 1
  71   37   97 1
  72   37   98 1
  73   37   99 1
  74   38  100 1
  75   38  101 1
  76   38  102 1
  77   39  103 1
  78   39  104 1
  79   39  105 1
  80   40  106 1
  81   40  107 1
  82   40  108 1
  83   41  109 1
  84   41  110 1
  85   41  111 1
  86   42  112 1
  87   42  113 1
  88   42  114 1
  89   43   44 1
  90   43   45 1
  91   43  115 1
  92   44   46 1
  93   44   47 2
  94   45   48 1
  95   45  116 1
  96   45  117 1
  97   46  118 1
  98   48   49 ar
  99   48   53 ar
 100   49   50 ar
 101   49  119 1
 102   50   51 ar
 103   50  120 1
 104   51   52 ar
 105   51  121 1
 106   52   53 ar
 107   52   54 ar
 108   53   57 ar
 109   54   55 ar
 110   54  122 1
 111   55   56 ar
 112   55  123 1
 113   56   57 ar
 114   56  124 1
 115   57  125 1
 116   58   59 ar
 117   58   63 ar
 118   58  126 1
 119   59   60 ar
 120   59  127 1
 121   60   61 ar
 122   60  128 1
 123   61   62 ar
 124   61  129 1
 125   62   63 ar
 126   62   64 ar
 127   63   67 ar
 128   64   65 ar
 129   64  130 1
 130   65   66 ar
 131   65  131 1
 132   66   67 ar
 133   66  132 1
 134   67   68 1
 135   68   69 1
 136   68  133 1
 137   68  134 1
 138   69   70 1
 139   69  135 1
 140   70   71 1
 141   70   72 2
 142   71  136 1

#	End of record

