#	Name: ASD01911630
#	Creating user name:	WinNT
#	Creation time:	15. 06. 2019 19:58

#	Modifying user name:	WinNT
#	Modification time:	15. 06. 2019 19:58

#	Program:	/corina/corina34_cracker 3.40 0067  02.08.2006

@<TRIPOS>MOLECULE
ASD01911630
  34   36    0    0    0
SMALL
NO_CHARGES


@<TRIPOS>ATOM
   1 N1            -0.0162     1.3436     0.0094 N.am    
   2 C2            -0.1425     0.0018     0.0219 C.2     
   3 C3            -1.4681    -0.6079     0.1511 C.2     
   4 C4            -1.7375    -1.9499     0.1775 C.2     
   5 S5            -2.9956     0.2574     0.3074 S.3     
   6 C6            -3.8554    -1.2777     0.3857 C.2     
   7 N7            -2.9963    -2.2630     0.3001 N.2     
   8 C8            -5.2727    -1.4259     0.5263 C.1     
   9 C9            -6.4347    -1.5474     0.6415 C.1     
  10 C10           -7.8521    -1.6955     0.7821 C.ar    
  11 C11           -8.4237    -2.9706     0.8329 C.ar    
  12 C12           -9.7893    -3.1051     0.9683 C.ar    
  13 C13          -10.5938    -1.9821     1.0539 C.ar    
  14 C14          -10.0354    -0.7167     1.0043 C.ar    
  15 C15           -8.6709    -0.5659     0.8749 C.ar    
  16 O16            0.8450    -0.7034    -0.0742 O.2     
  17 C17            1.2549     1.9260    -0.0012 C.ar    
  18 C18            1.4733     3.1075    -0.6981 C.ar    
  19 C19            2.3006     1.3275     0.6899 C.ar    
  20 C20            3.5547     1.9057     0.6778 C.ar    
  21 C21            3.7701     3.0792    -0.0214 C.ar    
  22 C22            2.7299     3.6805    -0.7062 C.ar    
  23 H23           -0.8071     1.9051     0.0038 H       
  24 H24           -0.9611    -2.6968     0.1016 H       
  25 H25           -7.7972    -3.8478     0.7659 H       
  26 H26          -10.2324    -4.0892     1.0074 H       
  27 H27          -11.6628    -2.0939     1.1595 H       
  28 H28          -10.6697     0.1548     1.0717 H       
  29 H29           -8.2366     0.4222     0.8367 H       
  30 H30            0.6615     3.5774    -1.2334 H       
  31 H31            2.1330     0.4112     1.2364 H       
  32 H32            4.3682     1.4410     1.2152 H       
  33 H33            4.7517     3.5295    -0.0290 H       
  34 H34            2.9015     4.5967    -1.2516 H       
@<TRIPOS>BOND
   1    1    2 am
   2    1   17 1
   3    1   23 1
   4    2    3 1
   5    2   16 2
   6    3    4 2
   7    3    5 1
   8    4    7 1
   9    4   24 1
  10    5    6 1
  11    6    7 2
  12    6    8 1
  13    8    9 3
  14    9   10 1
  15   10   11 ar
  16   10   15 ar
  17   11   12 ar
  18   11   25 1
  19   12   13 ar
  20   12   26 1
  21   13   14 ar
  22   13   27 1
  23   14   15 ar
  24   14   28 1
  25   15   29 1
  26   17   18 ar
  27   17   19 ar
  28   18   22 ar
  29   18   30 1
  30   19   20 ar
  31   19   31 1
  32   20   21 ar
  33   20   32 1
  34   21   22 ar
  35   21   33 1
  36   22   34 1

#	End of record

