#	Name: ASD04882218
#	Creating user name:	WinNT
#	Creation time:	15. 06. 2019 20:54

#	Modifying user name:	WinNT
#	Modification time:	15. 06. 2019 20:54

#	Program:	/corina/corina34_cracker 3.40 0067  02.08.2006

@<TRIPOS>MOLECULE
ASD04882218
  83   87    0    0    0
SMALL
NO_CHARGES


@<TRIPOS>ATOM
   1 C1            -0.1617     1.4805     0.4546 C.2     
   2 C2            -0.1422     0.0093     0.4890 C.2     
   3 N3            -1.1636    -0.6909    -0.0429 N.am    
   4 C4            -1.0912    -2.0883    -0.1179 C.ar    
   5 C5            -2.2494    -2.8573     0.0250 C.ar    
   6 C6            -2.1790    -4.2437    -0.0487 C.ar    
   7 C7            -0.9685    -4.8644    -0.2630 C.ar    
   8 C8             0.1937    -4.1014    -0.4068 C.ar    
   9 C9             0.1247    -2.7070    -0.3388 C.ar    
  10 N10           -3.4756    -2.2338     0.2418 N.3     
  11 C11           -3.5005    -1.5608     1.5480 C.3     
  12 C12           -4.5822    -3.1938     0.1261 C.3     
  13 C13           -5.9131    -2.4564     0.2917 C.3     
  14 N14           -5.9380    -1.7834     1.5979 N.3     
  15 C15           -4.8313    -0.8234     1.7136 C.3     
  16 C16           -7.1679    -1.1580     1.8154 C.ar    
  17 C17           -7.6088    -0.1683     0.9465 C.ar    
  18 C18           -7.9554    -1.5286     2.8983 C.ar    
  19 C19           -9.1707    -0.9084     3.1105 C.ar    
  20 C20           -9.6044     0.0805     2.2462 C.ar    
  21 C21           -8.8255     0.4480     1.1646 C.ar    
  22 C22            1.4905    -4.7665    -0.6354 C.2     
  23 N23            1.5552    -6.1109    -0.7058 N.am    
  24 O24            2.5010    -4.1019    -0.7604 O.2     
  25 O25            0.7959    -0.5749     0.9977 O.2     
  26 C26            0.8914     2.3039     1.0014 C.2     
  27 C27            0.6629     3.6040     0.8587 C.2     
  28 S28           -0.8660     3.8754     0.0409 S.3     
  29 C29           -1.1706     2.2043    -0.1005 C.2     
  30 C30           -7.4841    -2.6067     3.8400 C.3     
  31 C31            2.8429    -6.7714    -0.9328 C.3     
  32 C32            2.6391    -8.2873    -0.9698 C.3     
  33 C33            3.9840    -8.9771    -1.2069 C.3     
  34 N34            3.7888   -10.4286    -1.2423 N.am    
  35 C35            3.5203   -11.1309    -2.3565 C.2     
  36 C36            3.8675   -11.3037    -0.0666 C.3     
  37 C37            3.1812   -12.6221    -0.4875 C.3     
  38 C38            3.3711   -12.5989    -2.0231 C.3     
  39 O39            3.4126   -10.6565    -3.4675 O.2     
  40 C40            1.5877     4.6950     1.3334 C.3     
  41 C41            2.0302     5.5438     0.1398 C.3     
  42 C42            0.8560     5.5796     2.3449 C.3     
  43 H43           -1.9488    -0.2274    -0.3739 H       
  44 H44           -3.0756    -4.8354     0.0628 H       
  45 H45           -0.9170    -5.9417    -0.3198 H       
  46 H46            1.0210    -2.1147    -0.4499 H       
  47 H47           -3.3939    -2.3013     2.3407 H       
  48 H48           -2.6793    -0.8462     1.6046 H       
  49 H49           -4.5497    -3.6698    -0.8539 H       
  50 H50           -4.4879    -3.9528     0.9027 H       
  51 H51           -6.0197    -1.7159    -0.5010 H       
  52 H52           -6.7343    -3.1709     0.2351 H       
  53 H53           -4.8638    -0.3474     2.6937 H       
  54 H54           -4.9256    -0.0644     0.9371 H       
  55 H55           -7.0009     0.1192     0.1014 H       
  56 H56           -9.7834    -1.1960     3.9521 H       
  57 H57          -10.5557     0.5635     2.4140 H       
  58 H58           -9.1671     1.2206     0.4916 H       
  59 H59            0.7490    -6.6411    -0.6061 H       
  60 H60            1.7738     1.9032     1.4781 H       
  61 H61           -2.0486     1.7781    -0.5629 H       
  62 H62           -6.9065    -2.1567     4.6474 H       
  63 H63           -8.3462    -3.1276     4.2565 H       
  64 H64           -6.8588    -3.3154     3.2971 H       
  65 H65            3.2600    -6.4376    -1.8830 H       
  66 H66            3.5293    -6.5167    -0.1253 H       
  67 H67            2.2221    -8.6211    -0.0196 H       
  68 H68            1.9527    -8.5420    -1.7773 H       
  69 H69            4.4010    -8.6434    -2.1570 H       
  70 H70            4.6704    -8.7224    -0.3993 H       
  71 H71            4.9088   -11.4880     0.1973 H       
  72 H72            3.3384   -10.8546     0.7739 H       
  73 H73            3.6852   -13.4822    -0.0467 H       
  74 H74            2.1240   -12.6134    -0.2226 H       
  75 H75            2.4966   -13.0166    -2.5220 H       
  76 H76            4.2702   -13.1471    -2.3046 H       
  77 H77            2.4627     4.2493     1.8065 H       
  78 H78            1.1552     5.9895    -0.3333 H       
  79 H79            2.6991     6.3329     0.4832 H       
  80 H80            2.5514     4.9136    -0.5808 H       
  81 H81            0.5408     4.9749     3.1953 H       
  82 H82            1.5250     6.3687     2.6883 H       
  83 H83           -0.0190     6.0253     1.8718 H       
@<TRIPOS>BOND
   1    1    2 1
   2    1   26 1
   3    1   29 2
   4    2    3 am
   5    2   25 2
   6    3    4 1
   7    3   43 1
   8    4    5 ar
   9    4    9 ar
  10    5    6 ar
  11    5   10 1
  12    6    7 ar
  13    6   44 1
  14    7    8 ar
  15    7   45 1
  16    8    9 ar
  17    8   22 1
  18    9   46 1
  19   10   11 1
  20   10   12 1
  21   11   15 1
  22   11   47 1
  23   11   48 1
  24   12   13 1
  25   12   49 1
  26   12   50 1
  27   13   14 1
  28   13   51 1
  29   13   52 1
  30   14   15 1
  31   14   16 1
  32   15   53 1
  33   15   54 1
  34   16   17 ar
  35   16   18 ar
  36   17   21 ar
  37   17   55 1
  38   18   19 ar
  39   18   30 1
  40   19   20 ar
  41   19   56 1
  42   20   21 ar
  43   20   57 1
  44   21   58 1
  45   22   23 am
  46   22   24 2
  47   23   31 1
  48   23   59 1
  49   26   27 2
  50   26   60 1
  51   27   28 1
  52   27   40 1
  53   28   29 1
  54   29   61 1
  55   30   62 1
  56   30   63 1
  57   30   64 1
  58   31   32 1
  59   31   65 1
  60   31   66 1
  61   32   33 1
  62   32   67 1
  63   32   68 1
  64   33   34 1
  65   33   69 1
  66   33   70 1
  67   34   35 am
  68   34   36 1
  69   35   39 2
  70   35   38 1
  71   36   37 1
  72   36   71 1
  73   36   72 1
  74   37   38 1
  75   37   73 1
  76   37   74 1
  77   38   75 1
  78   38   76 1
  79   40   41 1
  80   40   42 1
  81   40   77 1
  82   41   78 1
  83   41   79 1
  84   41   80 1
  85   42   81 1
  86   42   82 1
  87   42   83 1

#	End of record

