#	Name: ASD00310006
#	Creating user name:	WinNT
#	Creation time:	15. 06. 2019 18:33

#	Modifying user name:	WinNT
#	Modification time:	15. 06. 2019 18:33

#	Program:	/corina/corina34_cracker 3.40 0067  02.08.2006

@<TRIPOS>MOLECULE
ASD00310006
  49   53    0    0    0
SMALL
NO_CHARGES


@<TRIPOS>ATOM
   1 Cl1           -0.2025     0.6406     2.7579 Cl      
   2 C2            -0.1744     2.2289     2.0579 C.ar    
   3 C3             1.0216     2.8352     1.8015 C.ar    
   4 C4             1.0514     4.1147     1.2381 C.ar    
   5 N5             2.0599     4.9513     0.8796 N.2     
   6 C6             1.5616     6.0563     0.3884 C.2     
   7 N7             0.1988     5.9981     0.4009 N.pl3   
   8 C8            -0.1547     4.7711     0.9376 C.ar    
   9 C9            -1.3647     4.1507     1.1999 C.ar    
  10 C10           -1.3774     2.8755     1.7554 C.ar    
  11 C11           -2.6697     2.2048     2.0390 C.ar    
  12 C12           -3.6661     2.8811     2.7503 C.ar    
  13 C13           -4.8612     2.2785     3.0194 C.ar    
  14 C14           -5.1028     0.9780     2.5868 C.ar    
  15 C15           -4.1077     0.2871     1.8699 C.ar    
  16 C16           -2.8904     0.9086     1.5929 C.ar    
  17 C17           -4.6682    -1.0325     1.5677 C.2     
  18 C18           -5.9039    -1.0628     2.0908 C.2     
  19 N19           -6.1811     0.1288     2.7033 N.pl3   
  20 C20           -7.4379     0.4532     3.3826 C.3     
  21 O21            2.2900     7.1024    -0.0647 O.3     
  22 C22            3.6413     7.0447     0.0694 C.ar    
  23 C23            4.3900     6.2476    -0.7859 C.ar    
  24 C24            5.7653     6.1852    -0.6547 C.ar    
  25 C25            6.4027     6.9144     0.3277 C.ar    
  26 C26            5.6582     7.7192     1.1929 C.ar    
  27 C27            4.2712     7.7855     1.0555 C.ar    
  28 C28            6.3373     8.5017     2.2461 C.2     
  29 O29            7.5507     8.5351     2.2910 O.2     
  30 O30            5.6107     9.1781     3.1568 O.3     
  31 C31            7.9015     6.8424     0.4674 C.3     
  32 H32            1.9454     2.3264     2.0344 H       
  33 H33           -0.4094     6.6877     0.0918 H       
  34 H34           -2.2931     4.6524     0.9705 H       
  35 H35           -3.4881     3.8905     3.0907 H       
  36 H36           -5.6215     2.8126     3.5700 H       
  37 H37           -2.1232     0.3835     1.0433 H       
  38 H38           -4.1797    -1.8295     1.0267 H       
  39 H39           -6.5796    -1.9036     2.0363 H       
  40 H40           -7.3672     0.1691     4.4326 H       
  41 H41           -7.6253     1.5244     3.3079 H       
  42 H42           -8.2562    -0.0925     2.9128 H       
  43 H43            3.8965     5.6738    -1.5564 H       
  44 H44            6.3421     5.5632    -1.3231 H       
  45 H45            3.6900     8.4060     1.7215 H       
  46 H46            6.0995     9.6757     3.8265 H       
  47 H47            8.3562     7.6815    -0.0591 H       
  48 H48            8.1706     6.8867     1.5227 H       
  49 H49            8.2617     5.9068     0.0396 H       
@<TRIPOS>BOND
   1    1    2 1
   2    2    3 ar
   3    2   10 ar
   4    3    4 ar
   5    3   32 1
   6    4    5 1
   7    4    8 ar
   8    5    6 2
   9    6    7 1
  10    6   21 1
  11    7    8 1
  12    7   33 1
  13    8    9 ar
  14    9   10 ar
  15    9   34 1
  16   10   11 1
  17   11   12 ar
  18   11   16 ar
  19   12   13 ar
  20   12   35 1
  21   13   14 ar
  22   13   36 1
  23   14   15 ar
  24   14   19 1
  25   15   16 ar
  26   15   17 1
  27   16   37 1
  28   17   18 2
  29   17   38 1
  30   18   19 1
  31   18   39 1
  32   19   20 1
  33   20   40 1
  34   20   41 1
  35   20   42 1
  36   21   22 1
  37   22   23 ar
  38   22   27 ar
  39   23   24 ar
  40   23   43 1
  41   24   25 ar
  42   24   44 1
  43   25   26 ar
  44   25   31 1
  45   26   27 ar
  46   26   28 1
  47   27   45 1
  48   28   29 2
  49   28   30 1
  50   30   46 1
  51   31   47 1
  52   31   48 1
  53   31   49 1

#	End of record

