#	Name: ASD01900152
#	Creating user name:	WinNT
#	Creation time:	15. 06. 2019 19:51

#	Modifying user name:	WinNT
#	Modification time:	15. 06. 2019 19:51

#	Program:	/corina/corina34_cracker 3.40 0067  02.08.2006

@<TRIPOS>MOLECULE
ASD01900152
  42   44    0    0    0
SMALL
NO_CHARGES


@<TRIPOS>ATOM
   1 C1            -0.0305     1.4047    -0.0988 C.ar    
   2 C2            -0.2267     0.3062     0.7226 C.ar    
   3 C3             0.7716    -0.0663     1.6095 C.ar    
   4 C4             1.9389     0.6799     1.6422 C.ar    
   5 C5             2.0678     1.7725     0.7873 C.ar    
   6 N6             1.0876     2.0955    -0.0472 N.ar    
   7 C7             3.3090     2.5806     0.8103 C.2     
   8 N8             3.4397     3.6387    -0.0142 N.am    
   9 O9             4.2096     2.2895     1.5727 O.2     
  10 C10            4.5722     4.4568     0.0711 C.ar    
  11 C11            5.8108     3.9000     0.3620 C.ar    
  12 C12            6.9277     4.7070     0.4462 C.ar    
  13 C13            6.8127     6.0756     0.2404 C.ar    
  14 C14            5.5738     6.6326    -0.0502 C.ar    
  15 C15            4.4583     5.8250    -0.1409 C.ar    
  16 N16            7.9453     6.8939     0.3262 N.am    
  17 C17            8.9599     6.5565     1.1467 C.2     
  18 C18           10.1055     7.4730     1.3204 C.ar    
  19 O19            8.9324     5.4978     1.7439 O.2     
  20 C20           11.1590     7.1265     2.1701 C.ar    
  21 C21           12.2267     7.9889     2.3273 C.ar    
  22 C22           12.2533     9.1920     1.6463 C.ar    
  23 C23           11.2125     9.5409     0.8031 C.ar    
  24 C24           10.1432     8.6871     0.6317 C.ar    
  25 Cl25          11.1261     5.6168     3.0264 Cl      
  26 C26            5.4488     8.1179    -0.2726 C.3     
  27 F27            4.1149     8.4376    -0.5477 F       
  28 F28            5.8639     8.7981     0.8773 F       
  29 F29            6.2517     8.4966    -1.3539 F       
  30 H30           -0.8043     1.6949    -0.7940 H       
  31 H31           -1.1486    -0.2541     0.6727 H       
  32 H32            0.6424    -0.9184     2.2603 H       
  33 H33            2.7372     0.4184     2.3210 H       
  34 H34            2.7488     3.8332    -0.6668 H       
  35 H35            5.9001     2.8358     0.5228 H       
  36 H36            7.8909     4.2740     0.6725 H       
  37 H37            3.4950     6.2581    -0.3669 H       
  38 H38            7.9999     7.7038    -0.2049 H       
  39 H39           13.0422     7.7230     2.9836 H       
  40 H40           13.0901     9.8630     1.7733 H       
  41 H41           11.2399    10.4824     0.2747 H       
  42 H42            9.3322     8.9612    -0.0267 H       
@<TRIPOS>BOND
   1    1    2 ar
   2    1    6 ar
   3    1   30 1
   4    2    3 ar
   5    2   31 1
   6    3    4 ar
   7    3   32 1
   8    4    5 ar
   9    4   33 1
  10    5    6 ar
  11    5    7 1
  12    7    8 am
  13    7    9 2
  14    8   10 1
  15    8   34 1
  16   10   11 ar
  17   10   15 ar
  18   11   12 ar
  19   11   35 1
  20   12   13 ar
  21   12   36 1
  22   13   14 ar
  23   13   16 1
  24   14   15 ar
  25   14   26 1
  26   15   37 1
  27   16   17 am
  28   16   38 1
  29   17   18 1
  30   17   19 2
  31   18   20 ar
  32   18   24 ar
  33   20   21 ar
  34   20   25 1
  35   21   22 ar
  36   21   39 1
  37   22   23 ar
  38   22   40 1
  39   23   24 ar
  40   23   41 1
  41   24   42 1
  42   26   27 1
  43   26   28 1
  44   26   29 1

#	End of record

