#	Name: ASD01914385
#	Creating user name:	WinNT
#	Creation time:	15. 06. 2019 20:03

#	Modifying user name:	WinNT
#	Modification time:	15. 06. 2019 20:03

#	Program:	/corina/corina34_cracker 3.40 0067  02.08.2006

@<TRIPOS>MOLECULE
ASD01914385
  44   46    0    0    0
SMALL
NO_CHARGES


@<TRIPOS>ATOM
   1 C1            -0.0167     1.3806     0.0096 C.ar    
   2 C2             0.0021    -0.0041     0.0020 C.ar    
   3 C3             1.2096    -0.6818    -0.0127 C.ar    
   4 C4             2.3977     0.0225    -0.0198 C.ar    
   5 C5             2.3808     1.4105    -0.0126 C.ar    
   6 C6             1.1693     2.0882     0.0021 C.ar    
   7 N7             3.5864     2.1275    -0.0193 N.pl3   
   8 C8             4.6535     1.9288     0.8147 C.2     
   9 C9             5.6002     2.8368     0.4610 C.2     
  10 C10            6.9340     2.9980     1.0902 C.ar    
  11 C11            7.8127     3.9752     0.6262 C.ar    
  12 C12            9.0522     4.1207     1.2153 C.ar    
  13 C13            9.4233     3.2986     2.2641 C.ar    
  14 C14            8.5552     2.3270     2.7287 C.ar    
  15 C15            7.3107     2.1767     2.1512 C.ar    
  16 N16            5.1124     3.5654    -0.5636 N.2     
  17 C17            3.9143     3.1446    -0.8589 C.2     
  18 C18            3.0353     3.6978    -1.9508 C.3     
  19 C19            2.1912     4.8169    -1.3976 C.2     
  20 O20            2.2930     5.1330    -0.2359 O.2     
  21 O21            1.3263     5.4627    -2.1955 O.3     
  22 C22            0.5462     6.5300    -1.5950 C.3     
  23 C23           -0.3761     7.1435    -2.6504 C.3     
  24 C24           10.7786     3.4618     2.9026 C.3     
  25 F25           -1.1591    -0.6946     0.0094 F       
  26 H26           -0.9594     1.9075     0.0169 H       
  27 H27            1.2224    -1.7617    -0.0182 H       
  28 H28            3.3392    -0.5064    -0.0305 H       
  29 H29            1.1543     3.1681     0.0073 H       
  30 H30            4.7283     1.1927     1.6015 H       
  31 H31            7.5243     4.6172    -0.1930 H       
  32 H32            9.7340     4.8777     0.8566 H       
  33 H33            8.8500     1.6879     3.5478 H       
  34 H34            6.6336     1.4180     2.5149 H       
  35 H35            3.6578     4.0783    -2.7606 H       
  36 H36            2.3875     2.9079    -2.3309 H       
  37 H37           -0.0533     6.1268    -0.7788 H       
  38 H38            1.2170     7.2972    -1.2085 H       
  39 H39            0.2234     7.5467    -3.4666 H       
  40 H40           -1.0470     6.3763    -3.0369 H       
  41 H41           -0.9618     7.9447    -2.1996 H       
  42 H42           10.7096     4.1745     3.7244 H       
  43 H43           11.1187     2.4990     3.2841 H       
  44 H44           11.4876     3.8297     2.1610 H       
@<TRIPOS>BOND
   1    1    2 ar
   2    1    6 ar
   3    1   26 1
   4    2    3 ar
   5    2   25 1
   6    3    4 ar
   7    3   27 1
   8    4    5 ar
   9    4   28 1
  10    5    6 ar
  11    5    7 1
  12    6   29 1
  13    7    8 1
  14    7   17 1
  15    8    9 2
  16    8   30 1
  17    9   10 1
  18    9   16 1
  19   10   11 ar
  20   10   15 ar
  21   11   12 ar
  22   11   31 1
  23   12   13 ar
  24   12   32 1
  25   13   14 ar
  26   13   24 1
  27   14   15 ar
  28   14   33 1
  29   15   34 1
  30   16   17 2
  31   17   18 1
  32   18   19 1
  33   18   35 1
  34   18   36 1
  35   19   20 2
  36   19   21 1
  37   21   22 1
  38   22   23 1
  39   22   37 1
  40   22   38 1
  41   23   39 1
  42   23   40 1
  43   23   41 1
  44   24   42 1
  45   24   43 1
  46   24   44 1

#	End of record

