#	Name: ASD03550005
#	Creating user name:	WinNT
#	Creation time:	15. 06. 2019 20:43

#	Modifying user name:	WinNT
#	Modification time:	15. 06. 2019 20:43

#	Program:	/corina/corina34_cracker 3.40 0067  02.08.2006

@<TRIPOS>MOLECULE
ASD03550005
  61   62    0    0    0
SMALL
NO_CHARGES


@<TRIPOS>ATOM
   1 C1            -0.0184     1.5028     0.0103 C.2     
   2 N2             1.3055    -0.4734    -0.4867 N.3     
   3 C3             0.0021    -0.0041     0.0020 C.3     
   4 C4            -0.2279    -0.5251     1.4221 C.3     
   5 C5            -0.3300    -2.0284     1.3953 C.ar    
   6 C6             0.8066    -2.8010     1.5441 C.ar    
   7 C7             0.7129    -4.1800     1.5194 C.ar    
   8 C8            -0.5173    -4.7863     1.3464 C.ar    
   9 C9            -1.6539    -4.0136     1.1985 C.ar    
  10 C10           -1.5609    -2.6347     1.2275 C.ar    
  11 O11            1.0236     2.1234     0.0037 O.2     
  12 N12           -1.1946     2.1607     0.0195 N.am    
  13 C13           -1.2145     3.6256     0.0275 C.3     
  14 C14           -2.5060     4.1071     0.6367 C.2     
  15 N15           -2.7466     5.4284     0.7491 N.am    
  16 C16           -1.1025     4.1450    -1.4072 C.3     
  17 C17            0.2417     3.7677    -1.9746 C.ar    
  18 C18            0.3964     2.5670    -2.6426 C.ar    
  19 C19            1.6275     2.2188    -3.1637 C.ar    
  20 C20            2.7091     3.0749    -3.0162 C.ar    
  21 C21            2.5513     4.2791    -2.3456 C.ar    
  22 C22            1.3167     4.6253    -1.8313 C.ar    
  23 O23           -3.3288     3.3056     1.0259 O.2     
  24 O24            3.9213     2.7344    -3.5275 O.3     
  25 C25           -4.0022     5.8965     1.3414 C.3     
  26 C26           -3.8642     5.9408     2.8414 C.2     
  27 O27           -4.8971     6.3424     3.5988 O.3     
  28 O28           -2.8239     5.6148     3.3623 O.2     
  29 C29           -4.3222     7.2978     0.8170 C.3     
  30 C30           -4.5850     7.2311    -0.6887 C.3     
  31 S31           -4.9644     8.8925    -1.3104 S.3     
  32 C32           -5.2411     8.6123    -3.0812 C.3     
  33 H33            1.4531    -0.1967    -1.4457 H       
  34 H34            2.0536    -0.1430     0.1043 H       
  35 H35           -0.7864    -0.3745    -0.6531 H       
  36 H36            0.6068    -0.2288     2.0574 H       
  37 H37           -1.1526    -0.1051     1.8179 H       
  38 H38            1.7677    -2.3274     1.6792 H       
  39 H39            1.6010    -4.7837     1.6349 H       
  40 H40           -0.5903    -5.8636     1.3264 H       
  41 H41           -2.6150    -4.4872     1.0630 H       
  42 H42           -2.4494    -2.0310     1.1156 H       
  43 H43           -2.0280     1.6644     0.0207 H       
  44 H44           -0.3749     3.9971     0.6150 H       
  45 H45           -2.0885     6.0694     0.4379 H       
  46 H46           -1.8910     3.7030    -2.0163 H       
  47 H47           -1.2064     5.2301    -1.4100 H       
  48 H48           -0.4459     1.9007    -2.7568 H       
  49 H49            1.7479     1.2806    -3.6850 H       
  50 H50            3.3917     4.9473    -2.2295 H       
  51 H51            1.1933     5.5625    -1.3091 H       
  52 H52            4.0624     3.0320    -4.4367 H       
  53 H53           -4.8081     5.2144     1.0706 H       
  54 H54           -4.7611     6.3542     4.5561 H       
  55 H55           -5.2075     7.6819     1.3237 H       
  56 H56           -3.4776     7.9594     1.0095 H       
  57 H57           -3.6997     6.8470    -1.1955 H       
  58 H58           -5.4296     6.5695    -0.8812 H       
  59 H59           -4.3394     8.1936    -3.5280 H       
  60 H60           -6.0693     7.9161    -3.2138 H       
  61 H61           -5.4809     9.5588    -3.5657 H       
@<TRIPOS>BOND
   1    1    3 1
   2    1   11 2
   3    1   12 am
   4    2    3 1
   5    2   33 1
   6    2   34 1
   7    3    4 1
   8    3   35 1
   9    4    5 1
  10    4   36 1
  11    4   37 1
  12    5    6 ar
  13    5   10 ar
  14    6    7 ar
  15    6   38 1
  16    7    8 ar
  17    7   39 1
  18    8    9 ar
  19    8   40 1
  20    9   10 ar
  21    9   41 1
  22   10   42 1
  23   12   13 1
  24   12   43 1
  25   13   14 1
  26   13   16 1
  27   13   44 1
  28   14   15 am
  29   14   23 2
  30   15   25 1
  31   15   45 1
  32   16   17 1
  33   16   46 1
  34   16   47 1
  35   17   18 ar
  36   17   22 ar
  37   18   19 ar
  38   18   48 1
  39   19   20 ar
  40   19   49 1
  41   20   21 ar
  42   20   24 1
  43   21   22 ar
  44   21   50 1
  45   22   51 1
  46   24   52 1
  47   25   26 1
  48   25   29 1
  49   25   53 1
  50   26   27 1
  51   26   28 2
  52   27   54 1
  53   29   30 1
  54   29   55 1
  55   29   56 1
  56   30   31 1
  57   30   57 1
  58   30   58 1
  59   31   32 1
  60   32   59 1
  61   32   60 1
  62   32   61 1

#	End of record

