#	Name: ASD08170492
#	Creating user name:	WinNT
#	Creation time:	15. 06. 2019 21:17

#	Modifying user name:	WinNT
#	Modification time:	15. 06. 2019 21:17

#	Program:	/corina/corina34_cracker 3.40 0067  02.08.2006

@<TRIPOS>MOLECULE
ASD08170492
  64   67    0    0    0
SMALL
NO_CHARGES


@<TRIPOS>ATOM
   1 N1            -0.0150     1.2583     0.0090 N.2     
   2 N2             0.0021    -0.0041     0.0020 N.2     
   3 C3             1.1605    -0.5914    -0.0122 C.2     
   4 S4             2.3840     0.6077    -0.0174 S.3     
   5 C5             1.1353     1.8535     0.0012 C.2     
   6 C6             1.3656     3.3428     0.0065 C.3     
   7 C7             1.4576     3.8394     1.4507 C.3     
   8 C8             1.5329     5.8711     2.9030 C.3     
   9 C9             1.6417     7.3972     2.9115 C.3     
  10 C10            1.6087     7.8952     4.3335 C.2     
  11 S11            0.1668     8.3405     5.2468 S.3     
  12 C12            1.1589     8.7208     6.5906 C.2     
  13 N13            2.3978     8.4995     6.2692 N.2     
  14 N14            2.6336     8.0678     5.1064 N.2     
  15 N15            0.7120     9.1888     7.8215 N.am    
  16 C16            1.5964     9.4527     8.8037 C.2     
  17 O17            2.7821     9.2819     8.6140 O.2     
  18 C18            1.1121     9.9599    10.1376 C.3     
  19 N19            1.3725    -1.9658    -0.0209 N.am    
  20 C20            0.3217    -2.8098    -0.0151 C.2     
  21 C21            0.5514    -4.2992    -0.0246 C.3     
  22 O22           -0.8087    -2.3706    -0.0024 O.2     
  23 C23            2.2909    10.1740    11.0517 C.ar    
  24 C24            2.9310    11.3989    11.0787 C.ar    
  25 C25           -0.7761    -5.0123    -0.0156 C.ar    
  26 C26           -1.3963    -5.3335    -1.2085 C.ar    
  27 C27           -1.3711    -5.3502     1.1856 C.ar    
  28 C28           -2.5888    -6.0043     1.1939 C.ar    
  29 C29           -3.2119    -6.3201     0.0010 C.ar    
  30 C30           -2.6141    -5.9875    -1.2003 C.ar    
  31 C31            4.0124    11.5954    11.9171 C.ar    
  32 C32            4.4533    10.5670    12.7290 C.ar    
  33 C33            3.8125     9.3424    12.7027 C.ar    
  34 C34            2.7285     9.1473    11.8673 C.ar    
  35 C35            2.6944     3.2362     2.1196 C.3     
  36 C36            1.5664     5.3655     1.4593 C.3     
  37 H37            2.2955     3.5685    -0.5153 H       
  38 H38            0.5365     3.8404    -0.4967 H       
  39 H39            0.5646     3.5357     1.9970 H       
  40 H40            2.3690     5.4442     3.4569 H       
  41 H41            0.5956     5.5710     3.3714 H       
  42 H42            2.5790     7.6973     2.4431 H       
  43 H43            0.8057     7.8242     2.3576 H       
  44 H44           -0.2363     9.3254     7.9732 H       
  45 H45            0.5846    10.9034     9.9978 H       
  46 H46            0.4366     9.2283    10.5810 H       
  47 H47            2.2766    -2.3171    -0.0311 H       
  48 H48            1.1062    -4.5755    -0.9212 H       
  49 H49            1.1230    -4.5842     0.8587 H       
  50 H50            2.5866    12.2023    10.4444 H       
  51 H51           -0.9295    -5.0731    -2.1470 H       
  52 H52           -0.8843    -5.1035     2.1176 H       
  53 H53           -3.0533    -6.2689     2.1323 H       
  54 H54           -4.1631    -6.8315     0.0074 H       
  55 H55           -3.1008    -6.2343    -2.1322 H       
  56 H56            4.5130    12.5521    11.9377 H       
  57 H57            5.2985    10.7203    13.3835 H       
  58 H58            4.1572     8.5389    13.3367 H       
  59 H59            2.2279     8.1906    11.8468 H       
  60 H60            2.7600     3.5900     3.1485 H       
  61 H61            2.6169     2.1490     2.1135 H       
  62 H62            3.5874     3.5399     1.5733 H       
  63 H63            2.5037     5.6656     0.9909 H       
  64 H64            0.7303     5.7925     0.9054 H       
@<TRIPOS>BOND
   1    1    2 1
   2    1    5 2
   3    2    3 2
   4    3    4 1
   5    3   19 1
   6    4    5 1
   7    5    6 1
   8    6    7 1
   9    6   37 1
  10    6   38 1
  11    7   35 1
  12    7   36 1
  13    7   39 1
  14    8    9 1
  15    8   36 1
  16    8   40 1
  17    8   41 1
  18    9   10 1
  19    9   42 1
  20    9   43 1
  21   10   11 1
  22   10   14 2
  23   11   12 1
  24   12   13 2
  25   12   15 1
  26   13   14 1
  27   15   16 am
  28   15   44 1
  29   16   17 2
  30   16   18 1
  31   18   23 1
  32   18   45 1
  33   18   46 1
  34   19   20 am
  35   19   47 1
  36   20   21 1
  37   20   22 2
  38   21   25 1
  39   21   48 1
  40   21   49 1
  41   23   24 ar
  42   23   34 ar
  43   24   31 ar
  44   24   50 1
  45   25   26 ar
  46   25   27 ar
  47   26   30 ar
  48   26   51 1
  49   27   28 ar
  50   27   52 1
  51   28   29 ar
  52   28   53 1
  53   29   30 ar
  54   29   54 1
  55   30   55 1
  56   31   32 ar
  57   31   56 1
  58   32   33 ar
  59   32   57 1
  60   33   34 ar
  61   33   58 1
  62   34   59 1
  63   35   60 1
  64   35   61 1
  65   35   62 1
  66   36   63 1
  67   36   64 1

#	End of record

