#	Name: ASD08070166
#	Creating user name:	WinNT
#	Creation time:	15. 06. 2019 21:14

#	Modifying user name:	WinNT
#	Modification time:	15. 06. 2019 21:14

#	Program:	/corina/corina34_cracker 3.40 0067  02.08.2006

@<TRIPOS>MOLECULE
ASD08070166
  38   40    0    0    0
SMALL
NO_CHARGES


@<TRIPOS>ATOM
   1 C1            -0.0168     1.3850     0.0097 C.ar    
   2 C2             0.0021    -0.0041     0.0020 C.ar    
   3 C3            -1.1800    -0.7176     0.0095 C.ar    
   4 C4            -2.3955    -0.0511     0.0247 C.ar    
   5 C5            -2.4217     1.3499     0.0324 C.ar    
   6 C6            -1.2212     2.0639     0.0306 C.ar    
   7 N7            -3.7323     3.4148     0.0555 N.am    
   8 C8            -3.7109     2.0672     0.0481 C.2     
   9 C9            -5.3546     3.1475     2.3228 C.ar    
  10 C10           -5.4937     4.2526     1.4929 C.ar    
  11 C11           -5.0124     4.1270     0.0711 C.3     
  12 C12           -5.7822     3.1967     3.6333 C.ar    
  13 C13           -6.3561     4.3545     4.1251 C.ar    
  14 C14           -6.4941     5.4533     3.3028 C.ar    
  15 C15           -6.0602     5.4071     1.9841 C.ar    
  16 C16           -6.2271     6.6481     1.1468 C.3     
  17 C17           -6.1146     6.3129    -0.3390 C.3     
  18 C18           -4.8287     5.5069    -0.5574 C.3     
  19 O19           -4.7541     1.4426     0.0543 O.2     
  20 O20           -3.5569    -0.7536     0.0315 O.3     
  21 O21            1.1527     2.0790     0.0022 O.3     
  22 H22            0.9461    -0.5285    -0.0102 H       
  23 H23           -1.1576    -1.7974     0.0031 H       
  24 H24           -1.2338     3.1438     0.0365 H       
  25 H25           -2.9001     3.9131     0.0506 H       
  26 H26           -4.9120     2.2408     1.9376 H       
  27 H27           -5.7442     3.5636    -0.5078 H       
  28 H28           -5.6694     2.3338     4.2729 H       
  29 H29           -6.6954     4.3982     5.1495 H       
  30 H30           -6.9436     6.3569     3.6874 H       
  31 H31           -7.2060     7.0853     1.3434 H       
  32 H32           -5.4528     7.3678     1.4125 H       
  33 H33           -6.9759     5.7206    -0.6479 H       
  34 H34           -6.0739     7.2336    -0.9210 H       
  35 H35           -3.9904     6.0176    -0.0834 H       
  36 H36           -4.6384     5.4015    -1.6254 H       
  37 H37           -3.8851    -0.9622     0.9169 H       
  38 H38            1.4825     2.2845    -0.8833 H       
@<TRIPOS>BOND
   1    1    2 ar
   2    1   21 1
   3    1    6 ar
   4    2    3 ar
   5    2   22 1
   6    3    4 ar
   7    3   23 1
   8    4    5 ar
   9    4   20 1
  10    5    6 ar
  11    5    8 1
  12    6   24 1
  13    7    8 am
  14    7   11 1
  15    7   25 1
  16    8   19 2
  17    9   10 ar
  18    9   12 ar
  19    9   26 1
  20   10   11 1
  21   10   15 ar
  22   11   18 1
  23   11   27 1
  24   12   13 ar
  25   12   28 1
  26   13   14 ar
  27   13   29 1
  28   14   15 ar
  29   14   30 1
  30   15   16 1
  31   16   17 1
  32   16   31 1
  33   16   32 1
  34   17   18 1
  35   17   33 1
  36   17   34 1
  37   18   35 1
  38   18   36 1
  39   20   37 1
  40   21   38 1

#	End of record

