#	Name: ASD01885497
#	Creating user name:	WinNT
#	Creation time:	15. 06. 2019 19:49

#	Modifying user name:	WinNT
#	Modification time:	15. 06. 2019 19:49

#	Program:	/corina/corina34_cracker 3.40 0067  02.08.2006

@<TRIPOS>MOLECULE
ASD01885497
  45   49    0    0    0
SMALL
NO_CHARGES


@<TRIPOS>ATOM
   1 C1            -0.0378     1.4160     0.0073 C.ar    
   2 C2            -0.0153     0.0201     0.0381 C.ar    
   3 N3            -1.1303    -0.7516     0.0508 N.2     
   4 C4            -2.1925    -0.5670    -0.6476 C.2     
   5 C5            -2.3350     0.6086    -1.5784 C.3     
   6 C6            -2.2854     1.8697    -0.7534 C.2     
   7 N7            -1.2058     2.1674    -0.0314 N.am    
   8 C8             1.1636     2.1188     0.0090 C.ar    
   9 C9             2.3808     1.4391     0.0362 C.ar    
  10 C10            2.3940     0.0394     0.0615 C.ar    
  11 C11            1.2216    -0.6519     0.0622 C.ar    
  12 C12           -3.2989    -1.5294    -0.5356 C.ar    
  13 O13           -3.2372     2.6215    -0.7486 O.2     
  14 C14           -4.5235    -1.2798    -1.1674 C.ar    
  15 C15           -5.5572    -2.1742    -1.0660 C.ar    
  16 C16           -5.4166    -3.3624    -0.3277 C.ar    
  17 C17           -4.1889    -3.5996     0.2982 C.ar    
  18 C18           -3.1406    -2.7093     0.1985 C.ar    
  19 C19            3.6123     2.1698     0.0377 C.1     
  20 C20            4.6220     2.7688     0.0390 C.1     
  21 C21            5.8536     3.4995     0.0405 C.ar    
  22 C22            7.0738     2.8193     0.0677 C.ar    
  23 C23            8.2561     3.5297     0.0691 C.ar    
  24 C24            8.2374     4.9132     0.0440 C.ar    
  25 C25            7.0343     5.5959     0.0173 C.ar    
  26 C26            5.8415     4.8991     0.0089 C.ar    
  27 F27            4.6670     5.5663    -0.0176 F       
  28 N28           -6.3571    -4.3543    -0.1338 N.am    
  29 C29           -6.0277    -5.4165     0.6070 C.2     
  30 S30           -4.3539    -5.1552     1.1249 S.3     
  31 O31           -6.7350    -6.3708     0.8724 O.2     
  32 H32           -1.5175     0.6082    -2.2993 H       
  33 H33           -3.2887     0.5492    -2.1027 H       
  34 H34           -1.2381     2.9703     0.5120 H       
  35 H35            1.1529     3.1985    -0.0113 H       
  36 H36            3.3342    -0.4917     0.0802 H       
  37 H37            1.2405    -1.7315     0.0817 H       
  38 H38           -4.6549    -0.3734    -1.7398 H       
  39 H39           -6.4938    -1.9629    -1.5605 H       
  40 H40           -2.2032    -2.9186     0.6922 H       
  41 H41            7.0912     1.7396     0.0881 H       
  42 H42            9.1995     3.0045     0.0901 H       
  43 H43            9.1669     5.4630     0.0456 H       
  44 H44            7.0277     6.6757    -0.0018 H       
  45 H45           -7.2405    -4.2814    -0.5277 H       
@<TRIPOS>BOND
   1    1    2 ar
   2    1    8 ar
   3    1    7 1
   4    2    3 1
   5    2   11 ar
   6    3    4 2
   7    4    5 1
   8    4   12 1
   9    5    6 1
  10    5   32 1
  11    5   33 1
  12    6    7 am
  13    6   13 2
  14    7   34 1
  15    8    9 ar
  16    8   35 1
  17    9   10 ar
  18    9   19 1
  19   10   11 ar
  20   10   36 1
  21   11   37 1
  22   12   14 ar
  23   12   18 ar
  24   14   15 ar
  25   14   38 1
  26   15   16 ar
  27   15   39 1
  28   16   17 ar
  29   16   28 1
  30   17   18 ar
  31   17   30 1
  32   18   40 1
  33   19   20 3
  34   20   21 1
  35   21   22 ar
  36   21   26 ar
  37   22   23 ar
  38   22   41 1
  39   23   24 ar
  40   23   42 1
  41   24   25 ar
  42   24   43 1
  43   25   26 ar
  44   25   44 1
  45   26   27 1
  46   28   29 am
  47   28   45 1
  48   29   30 1
  49   29   31 2

#	End of record

