#	Name: ASD05300032
#	Creating user name:	WinNT
#	Creation time:	15. 06. 2019 20:58

#	Modifying user name:	WinNT
#	Modification time:	15. 06. 2019 20:58

#	Program:	/corina/corina34_cracker 3.40 0067  02.08.2006

@<TRIPOS>MOLECULE
ASD05300032
  36   37    0    0    0
SMALL
NO_CHARGES


@<TRIPOS>ATOM
   1 C1             0.9880    -0.5163    -0.4601 C.ar    
   2 C2            -0.0767     0.1601     0.1053 C.ar    
   3 N3             0.0799     1.3672     0.6128 N.ar    
   4 C4             1.2478     1.9778     0.6046 C.ar    
   5 C5             2.3649     1.3626     0.0545 C.ar    
   6 C6             2.2344     0.0879    -0.4904 C.ar    
   7 O7             4.6893     0.1043     0.3715 O.2     
   8 C8             4.7409     1.3017     0.1667 C.2     
   9 N9             3.6033     2.0146     0.0473 N.am    
  10 Br10           8.0526     2.5606    -2.0646 Br      
  11 C11            8.1874     1.3544    -0.6144 C.ar    
  12 C12            7.1165     1.1899     0.2550 C.ar    
  13 N13            5.9356     1.9162     0.0592 N.am    
  14 C14            9.3493     0.6313    -0.4217 C.ar    
  15 C15            9.4487    -0.2509     0.6384 C.ar    
  16 C16            8.3869    -0.4129     1.5091 C.ar    
  17 C17            7.2199     0.3027     1.3190 C.ar    
  18 Br18           5.7683     0.0803     2.5104 Br      
  19 C19           10.7172    -1.0380     0.8450 C.3     
  20 C20           11.3079    -0.7025     2.2159 C.3     
  21 C21           10.4058    -2.5344     0.7762 C.3     
  22 H22            0.8508    -1.5062    -0.8696 H       
  23 H23           -1.0504    -0.3063     0.1315 H       
  24 H24            1.3370     2.9667     1.0294 H       
  25 H25            3.0839    -0.4175    -0.9253 H       
  26 H26            3.6429     2.9795    -0.0437 H       
  27 H27            5.9774     2.8615    -0.1539 H       
  28 H28           10.1805     0.7551    -1.1001 H       
  29 H29            8.4678    -1.1031     2.3359 H       
  30 H30           11.4356    -0.7802     0.0669 H       
  31 H31           11.5298     0.3635     2.2650 H       
  32 H32           10.5895    -0.9603     2.9941 H       
  33 H33           12.2254    -1.2718     2.3654 H       
  34 H34            9.9849    -2.7733    -0.2005 H       
  35 H35           11.3232    -3.1036     0.9256 H       
  36 H36            9.6874    -2.7922     1.5543 H       
@<TRIPOS>BOND
   1    1    2 ar
   2    1    6 ar
   3    1   22 1
   4    2    3 ar
   5    2   23 1
   6    3    4 ar
   7    4    5 ar
   8    4   24 1
   9    5    6 ar
  10    5    9 1
  11    6   25 1
  12    7    8 2
  13    8    9 am
  14    8   13 am
  15    9   26 1
  16   10   11 1
  17   11   12 ar
  18   11   14 ar
  19   12   13 1
  20   12   17 ar
  21   13   27 1
  22   14   15 ar
  23   14   28 1
  24   15   16 ar
  25   15   19 1
  26   16   17 ar
  27   16   29 1
  28   17   18 1
  29   19   20 1
  30   19   21 1
  31   19   30 1
  32   20   31 1
  33   20   32 1
  34   20   33 1
  35   21   34 1
  36   21   35 1
  37   21   36 1

#	End of record

