#	Name: ASD03092656
#	Creating user name:	WinNT
#	Creation time:	15. 06. 2019 20:32

#	Modifying user name:	WinNT
#	Modification time:	15. 06. 2019 20:32

#	Program:	/corina/corina34_cracker 3.40 0067  02.08.2006

@<TRIPOS>MOLECULE
ASD03092656
  55   58    0    0    0
SMALL
NO_CHARGES


@<TRIPOS>ATOM
   1 C1            -0.4014     1.5748     0.2877 C.ar    
   2 C2            -0.3129     0.1712     0.1876 C.ar    
   3 C3             0.9636    -0.4334     0.1644 C.ar    
   4 C4             2.0787     0.3988     0.2425 C.ar    
   5 C5             1.8982     1.7700     0.3388 C.ar    
   6 N6             0.6989     2.3089     0.3589 N.ar    
   7 N7            -2.4590     0.6794     0.1980 N.2     
   8 N8            -1.7409     1.8774     0.2931 N.pl3   
   9 C9            -1.6323    -0.3257     0.1304 C.2     
  10 C10            1.1116    -1.9005     0.0611 C.2     
  11 O11            0.3076    -2.6324     0.6051 O.2     
  12 N12            2.1379    -2.4268    -0.6361 N.am    
  13 C13            1.8874    -4.5929     0.4115 C.ar    
  14 C14            2.3477    -3.8119    -0.6358 C.ar    
  15 C15            3.0256    -4.4288    -1.6942 C.ar    
  16 C16            3.2071    -5.8088    -1.6451 C.ar    
  17 C17            2.7167    -6.5131    -0.5642 C.ar    
  18 N18            2.0823    -5.8982     0.4160 N.ar    
  19 N19            3.5055    -3.6819    -2.7687 N.3     
  20 C20            4.9631    -3.8154    -2.8933 C.3     
  21 C21            2.8331    -4.0641    -4.0176 C.3     
  22 C22            3.1072     2.6657     0.4235 C.3     
  23 C23           -2.0209    -1.7775     0.0191 C.3     
  24 C24           -2.2934     3.1629     0.3797 C.ar    
  25 C25           -3.4638     3.4635    -0.3044 C.ar    
  26 C26           -4.0076     4.7296    -0.2183 C.ar    
  27 C27           -3.3850     5.7014     0.5516 C.ar    
  28 C28           -2.2156     5.4018     1.2354 C.ar    
  29 C29           -1.6736     4.1345     1.1544 C.ar    
  30 O30           -3.9208     6.9481     0.6356 O.3     
  31 C31           -3.2273     7.8990     1.4461 C.3     
  32 H32            3.0739    -0.0204     0.2285 H       
  33 H33            2.7313    -1.8465    -1.1382 H       
  34 H34            1.3671    -4.1279     1.2358 H       
  35 H35            3.7246    -6.3212    -2.4426 H       
  36 H36            2.8538    -7.5835    -0.5202 H       
  37 H37            5.2197    -4.8626    -3.0534 H       
  38 H38            5.3112    -3.2226    -3.7393 H       
  39 H39            5.4399    -3.4599    -1.9799 H       
  40 H40            1.7615    -3.8894    -3.9215 H       
  41 H41            3.2264    -3.4661    -4.8397 H       
  42 H42            3.0126    -5.1203    -4.2184 H       
  43 H43            3.4156     2.9558    -0.5809 H       
  44 H44            2.8592     3.5574     0.9993 H       
  45 H45            3.9214     2.1317     0.9135 H       
  46 H46           -2.0369    -2.2265     1.0122 H       
  47 H47           -3.0106    -1.8553    -0.4308 H       
  48 H48           -1.2961    -2.3008    -0.6045 H       
  49 H49           -3.9483     2.7071    -0.9040 H       
  50 H50           -4.9177     4.9636    -0.7506 H       
  51 H51           -1.7315     6.1587     1.8346 H       
  52 H52           -0.7657     3.9001     1.6903 H       
  53 H53           -3.1750     7.5330     2.4714 H       
  54 H54           -2.2183     8.0394     1.0585 H       
  55 H55           -3.7597     8.8500     1.4265 H       
@<TRIPOS>BOND
   1    1    2 ar
   2    1    6 ar
   3    1    8 1
   4    2    3 ar
   5    2    9 1
   6    3    4 ar
   7    3   10 1
   8    4    5 ar
   9    4   32 1
  10    5    6 ar
  11    5   22 1
  12    7    8 1
  13    7    9 2
  14    8   24 1
  15    9   23 1
  16   10   11 2
  17   10   12 am
  18   12   14 1
  19   12   33 1
  20   13   14 ar
  21   13   18 ar
  22   13   34 1
  23   14   15 ar
  24   15   16 ar
  25   15   19 1
  26   16   17 ar
  27   16   35 1
  28   17   18 ar
  29   17   36 1
  30   19   20 1
  31   19   21 1
  32   20   37 1
  33   20   38 1
  34   20   39 1
  35   21   40 1
  36   21   41 1
  37   21   42 1
  38   22   43 1
  39   22   44 1
  40   22   45 1
  41   23   46 1
  42   23   47 1
  43   23   48 1
  44   24   25 ar
  45   24   29 ar
  46   25   26 ar
  47   25   49 1
  48   26   27 ar
  49   26   50 1
  50   27   28 ar
  51   27   30 1
  52   28   29 ar
  53   28   51 1
  54   29   52 1
  55   30   31 1
  56   31   53 1
  57   31   54 1
  58   31   55 1

#	End of record

