#	Name: ASD03090009
#	Creating user name:	WinNT
#	Creation time:	15. 06. 2019 20:28

#	Modifying user name:	WinNT
#	Modification time:	15. 06. 2019 20:28

#	Program:	/corina/corina34_cracker 3.40 0067  02.08.2006

@<TRIPOS>MOLECULE
ASD03090009
  45   46    0    0    0
SMALL
NO_CHARGES


@<TRIPOS>ATOM
   1 C1            -0.0167     1.3772     0.0096 C.ar    
   2 C2             0.0021    -0.0041     0.0020 C.ar    
   3 C3             1.2080    -0.6802    -0.0131 C.ar    
   4 C4             2.3980     0.0239    -0.0207 C.ar    
   5 C5             2.3846     1.4052    -0.0127 C.ar    
   6 C6             1.1759     2.0860     0.0020 C.ar    
   7 C7             1.2256    -2.1871    -0.0209 C.3     
   8 N8             1.2178    -2.6684    -1.4045 N.pl3   
   9 C9             2.4235    -2.8838    -2.0758 C.ar    
  10 C10           -0.0547    -2.9239    -2.0841 C.3     
  11 C11           -0.5181    -1.6505    -2.7944 C.3     
  12 N12           -1.7941    -1.9067    -3.4759 N.3     
  13 C13           -2.3885    -0.6566    -3.9677 C.3     
  14 C14           -1.6226    -2.8736    -4.5683 C.3     
  15 C15            3.6310    -2.6420    -1.4330 C.ar    
  16 C16            4.8214    -2.8564    -2.0995 C.ar    
  17 C17            4.8123    -3.3113    -3.4054 C.ar    
  18 C18            3.6120    -3.5529    -4.0483 C.ar    
  19 C19            2.4181    -3.3456    -3.3859 C.ar    
  20 O20            1.1601     3.4449     0.0104 O.3     
  21 C21           -0.1205     4.0787     0.0255 C.3     
  22 H22           -0.9589     1.9049     0.0169 H       
  23 H23           -0.9260    -0.5563     0.0083 H       
  24 H24            3.3387    -0.5065    -0.0325 H       
  25 H25            3.3144     1.9547    -0.0179 H       
  26 H26            2.1247    -2.5426     0.4824 H       
  27 H27            0.3449    -2.5634     0.4997 H       
  28 H28            0.0779    -3.7206    -2.8161 H       
  29 H29           -0.8038    -3.2245    -1.3516 H       
  30 H30           -0.6507    -0.8538    -2.0624 H       
  31 H31            0.2310    -1.3499    -3.5269 H       
  32 H32           -1.7053    -0.1819    -4.6720 H       
  33 H33           -3.3320    -0.8751    -4.4679 H       
  34 H34           -2.5692     0.0147    -3.1282 H       
  35 H35           -1.2466    -3.8141    -4.1655 H       
  36 H36           -2.5824    -3.0451    -5.0558 H       
  37 H37           -0.9117    -2.4792    -5.2944 H       
  38 H38            3.6388    -2.2865    -0.4132 H       
  39 H39            5.7605    -2.6684    -1.6004 H       
  40 H40            5.7446    -3.4778    -3.9244 H       
  41 H41            3.6084    -3.9081    -5.0682 H       
  42 H42            1.4811    -3.5349    -3.8885 H       
  43 H43           -0.6819     3.7848    -0.8614 H       
  44 H44           -0.6662     3.7740     0.9185 H       
  45 H45            0.0098     5.1609     0.0309 H       
@<TRIPOS>BOND
   1    1    2 ar
   2    1    6 ar
   3    1   22 1
   4    2    3 ar
   5    2   23 1
   6    3    4 ar
   7    3    7 1
   8    4    5 ar
   9    4   24 1
  10    5    6 ar
  11    5   25 1
  12    6   20 1
  13    7    8 1
  14    7   26 1
  15    7   27 1
  16    8    9 1
  17    8   10 1
  18    9   15 ar
  19    9   19 ar
  20   10   11 1
  21   10   28 1
  22   10   29 1
  23   11   12 1
  24   11   30 1
  25   11   31 1
  26   12   13 1
  27   12   14 1
  28   13   32 1
  29   13   33 1
  30   13   34 1
  31   14   35 1
  32   14   36 1
  33   14   37 1
  34   15   16 ar
  35   15   38 1
  36   16   17 ar
  37   16   39 1
  38   17   18 ar
  39   17   40 1
  40   18   19 ar
  41   18   41 1
  42   19   42 1
  43   20   21 1
  44   21   43 1
  45   21   44 1
  46   21   45 1

#	End of record

