#	Name: ASD01410178
#	Creating user name:	WinNT
#	Creation time:	15. 06. 2019 19:16

#	Modifying user name:	WinNT
#	Modification time:	15. 06. 2019 19:16

#	Program:	/corina/corina34_cracker 3.40 0067  02.08.2006

@<TRIPOS>MOLECULE
ASD01410178
  43   46    0    0    0
SMALL
NO_CHARGES


@<TRIPOS>ATOM
   1 C1            -0.0671     1.3281     0.0343 C.ar    
   2 C2             0.0639    -0.0739     0.0041 C.ar    
   3 C3            -1.0685    -0.8816     0.0189 C.ar    
   4 C4            -2.3108    -0.3200     0.0622 C.ar    
   5 C5            -2.4606     1.0738     0.0923 C.ar    
   6 C6            -1.3400     1.8985     0.0837 C.ar    
   7 N7             1.1845     1.8474     0.0113 N.2     
   8 C8             2.0614     0.8760    -0.0303 C.2     
   9 N9             1.4162    -0.3319    -0.0364 N.pl3   
  10 C10            1.7409    -2.4061     1.2181 C.3     
  11 C11            2.4000    -3.7861     1.1745 C.3     
  12 C12            1.8516    -4.5758    -0.0157 C.3     
  13 C13            2.1581    -3.8231    -1.3120 C.3     
  14 C14            1.4990    -2.4430    -1.2683 C.3     
  15 C15            2.0473    -1.6533    -0.0781 C.3     
  16 C16           -3.8106     1.6677     0.1381 C.2     
  17 O17           -3.9425     2.8752     0.1642 O.2     
  18 O18           -4.8970     0.8709     0.1509 O.3     
  19 C19            5.4426     2.4900    -0.2149 C.ar    
  20 C20            6.2366     1.3560    -0.1275 C.ar    
  21 C21            5.6366     0.1141    -0.0122 C.ar    
  22 N22            4.3258    -0.0036     0.0155 N.ar    
  23 C23            3.5299     1.0563    -0.0655 C.ar    
  24 C24            4.0666     2.3374    -0.1834 C.ar    
  25 H25           -0.9638    -1.9563    -0.0044 H       
  26 H26           -3.1855    -0.9535     0.0731 H       
  27 H27           -1.4545     2.9722     0.1072 H       
  28 H28            0.6623    -2.5218     1.3248 H       
  29 H29            2.1316    -1.8435     2.0660 H       
  30 H30            3.4786    -3.6704     1.0678 H       
  31 H31            2.1817    -4.3224     2.0980 H       
  32 H32            2.3212    -5.5590    -0.0468 H       
  33 H33            0.7731    -4.6915     0.0909 H       
  34 H34            3.2367    -3.7073    -1.4186 H       
  35 H35            1.7674    -4.3856    -2.1599 H       
  36 H36            1.7173    -1.9067    -2.1918 H       
  37 H37            0.4204    -2.5587    -1.1617 H       
  38 H38            3.1259    -1.5376    -0.1848 H       
  39 H39           -5.7601     1.3059     0.1813 H       
  40 H40            5.8876     3.4703    -0.3011 H       
  41 H41            7.3130     1.4414    -0.1496 H       
  42 H42            6.2522    -0.7706     0.0561 H       
  43 H43            3.4184     3.1988    -0.2488 H       
@<TRIPOS>BOND
   1    1    2 ar
   2    1    7 1
   3    1    6 ar
   4    2    3 ar
   5    2    9 1
   6    3    4 ar
   7    3   25 1
   8    4    5 ar
   9    4   26 1
  10    5    6 ar
  11    5   16 1
  12    6   27 1
  13    7    8 2
  14    8    9 1
  15    8   23 1
  16    9   15 1
  17   10   11 1
  18   10   15 1
  19   10   28 1
  20   10   29 1
  21   11   12 1
  22   11   30 1
  23   11   31 1
  24   12   13 1
  25   12   32 1
  26   12   33 1
  27   13   14 1
  28   13   34 1
  29   13   35 1
  30   14   15 1
  31   14   36 1
  32   14   37 1
  33   15   38 1
  34   16   17 2
  35   16   18 1
  36   18   39 1
  37   19   20 ar
  38   19   24 ar
  39   19   40 1
  40   20   21 ar
  41   20   41 1
  42   21   22 ar
  43   21   42 1
  44   22   23 ar
  45   23   24 ar
  46   24   43 1

#	End of record

