#	Name: ASD01001049
#	Creating user name:	WinNT
#	Creation time:	15. 06. 2019 18:55

#	Modifying user name:	WinNT
#	Modification time:	15. 06. 2019 18:55

#	Program:	/corina/corina34_cracker 3.40 0067  02.08.2006

@<TRIPOS>MOLECULE
ASD01001049
  49   51    0    0    0
SMALL
NO_CHARGES


@<TRIPOS>ATOM
   1 C1             0.1498     0.8294    -0.2456 C.ar    
   2 C2             0.3475    -0.4012    -0.8358 C.ar    
   3 C3             1.2302     1.6463     0.0382 C.ar    
   4 C4             1.6438    -0.8229    -1.1473 C.ar    
   5 C5             2.5165     1.2359    -0.2672 C.ar    
   6 C6             2.7306     0.0085    -0.8572 C.ar    
   7 C7             3.6859     2.1333     0.0462 C.3     
   8 C8             3.2465     3.5732    -0.0216 C.ar    
   9 C9             4.1960     1.8285     1.4311 C.ar    
  10 S10            5.0085     1.8472    -1.1619 S.3     
  11 C11            3.4433     4.4078     1.0627 C.ar    
  12 C12            2.6517     4.0610    -1.1702 C.ar    
  13 C13            3.3563     1.9596     2.5214 C.ar    
  14 C14            5.5020     1.4125     1.6106 C.ar    
  15 C15            6.2285     3.1219    -0.7409 C.3     
  16 C16            3.0453     5.7300     0.9985 C.ar    
  17 C17            2.2486     5.3818    -1.2324 C.ar    
  18 C18            3.8226     1.6745     3.7911 C.ar    
  19 C19            5.9699     1.1329     2.8810 C.ar    
  20 C20            7.4052     3.0434    -1.7157 C.3     
  21 C21            2.4510     6.2179    -0.1503 C.ar    
  22 C22            5.1285     1.2580     3.9705 C.ar    
  23 N23            8.3932     4.0757    -1.3748 N.3     
  24 H24            7.8691     2.0595    -1.6466 H       
  25 C25            1.8636    -2.1349    -1.7767 C.2     
  26 O26            2.9890    -2.4975    -2.0456 O.2     
  27 C27            0.6899    -3.0278    -2.0871 C.3     
  28 H28           -0.8511     1.1585    -0.0084 H       
  29 H29           -0.4966    -1.0378    -1.0564 H       
  30 H30            1.0689     2.6091     0.5001 H       
  31 H31            3.7348    -0.3104    -1.0946 H       
  32 H32            3.9076     4.0266     1.9602 H       
  33 H33            2.5023     3.4103    -2.0191 H       
  34 H34            2.3361     2.2850     2.3812 H       
  35 H35            6.1566     1.3055     0.7583 H       
  36 H36            5.7645     4.1058    -0.8100 H       
  37 H37            6.5872     2.9600     0.2755 H       
  38 H38            3.1984     6.3818     1.8459 H       
  39 H39            1.7842     5.7630    -2.1299 H       
  40 H40            3.1668     1.7776     4.6430 H       
  41 H41            6.9902     0.8075     3.0211 H       
  42 H42            7.0464     3.2054    -2.7321 H       
  43 H43            2.1397     7.2509    -0.2004 H       
  44 H44            5.4940     1.0396     4.9630 H       
  45 H45            8.6934     3.9862    -0.4157 H       
  46 H46            9.1808     4.0445    -2.0047 H       
  47 H47           -0.2323    -2.5367    -1.7766 H       
  48 H48            0.6549    -3.2224    -3.1590 H       
  49 H49            0.7983    -3.9702    -1.5502 H       
@<TRIPOS>BOND
   1    1    2 ar
   2    1    3 ar
   3    1   28 1
   4    2    4 ar
   5    2   29 1
   6    3    5 ar
   7    3   30 1
   8    4    6 ar
   9    4   25 1
  10    5    6 ar
  11    5    7 1
  12    6   31 1
  13    7   10 1
  14    7    8 1
  15    7    9 1
  16    8   12 ar
  17    8   11 ar
  18    9   14 ar
  19    9   13 ar
  20   10   15 1
  21   11   16 ar
  22   11   32 1
  23   12   17 ar
  24   12   33 1
  25   13   18 ar
  26   13   34 1
  27   14   19 ar
  28   14   35 1
  29   15   20 1
  30   15   36 1
  31   15   37 1
  32   16   21 ar
  33   16   38 1
  34   17   21 ar
  35   17   39 1
  36   18   22 ar
  37   18   40 1
  38   19   22 ar
  39   19   41 1
  40   20   23 1
  41   20   24 1
  42   20   42 1
  43   21   43 1
  44   22   44 1
  45   23   45 1
  46   23   46 1
  47   25   26 2
  48   25   27 1
  49   27   47 1
  50   27   48 1
  51   27   49 1

#	End of record

