#	Name: ASD03330765
#	Creating user name:	WinNT
#	Creation time:	15. 06. 2019 20:37

#	Modifying user name:	WinNT
#	Modification time:	15. 06. 2019 20:37

#	Program:	/corina/corina34_cracker 3.40 0067  02.08.2006

@<TRIPOS>MOLECULE
ASD03330765
  63   65    0    0    0
SMALL
NO_CHARGES


@<TRIPOS>ATOM
   1 C1             0.7797     1.4281     0.2190 C.2     
   2 N2             0.6850     0.0724     0.2672 N.pl3   
   3 C3             2.0968     1.7319     0.0550 C.2     
   4 N4             2.7829     0.5695    -0.0120 N.2     
   5 C5             1.9428    -0.4318     0.1087 C.2     
   6 C6             2.2999    -1.8664     0.0784 C.ar    
   7 C7             2.6713     3.0858    -0.0341 C.2     
   8 O8             1.9468     4.0599     0.0398 O.2     
   9 C9             4.5709     4.5910    -0.2860 C.3     
  10 N10            3.9997     3.2448    -0.1974 N.am    
  11 C11            5.8899     4.5354    -1.0592 C.3     
  12 C12            4.8240     5.1215     1.1017 C.2     
  13 O13            4.5539     4.4421     2.0693 O.2     
  14 C14           -0.5525    -0.6864     0.4686 C.3     
  15 C15           -1.6388    -0.1308    -0.4577 C.3     
  16 C16           -2.3658     1.0193     0.2317 C.3     
  17 N17           -1.4558     1.7777     1.0922 N.3     
  18 C18           -0.3725     2.3946     0.3123 C.3     
  19 C19            1.8049    -2.7321     1.0548 C.ar    
  20 C20            3.1294    -2.3612    -0.9311 C.ar    
  21 C21            3.4597    -3.7031    -0.9549 C.ar    
  22 C22            2.9700    -4.5563     0.0193 C.ar    
  23 C23            2.1411    -4.0707     1.0217 C.ar    
  24 C24           -2.1858     2.7879     1.8698 C.3     
  25 N25            5.3506     6.3510     1.2673 N.am    
  26 C26            5.5967     6.8668     2.6163 C.3     
  27 C27            5.6119     4.1574    -2.5155 C.3     
  28 C28            5.0629     2.7305    -2.5761 C.3     
  29 C29            4.5842     5.1247    -3.1062 C.3     
  30 C30            6.9105     4.2388    -3.3204 C.3     
  31 F31            3.2958    -5.8671    -0.0084 F       
  32 F32            1.6668    -4.9087     1.9693 F       
  33 F33            3.6075    -1.5296    -1.8826 F       
  34 H34            3.8731     5.2484    -0.8046 H       
  35 H35            4.5775     2.4679    -0.2564 H       
  36 H36            6.3735     5.5116    -1.0233 H       
  37 H37            6.5441     3.7890    -0.6086 H       
  38 H38           -0.3777    -1.7368     0.2361 H       
  39 H39           -0.8740    -0.5904     1.5057 H       
  40 H40           -1.1803     0.2302    -1.3783 H       
  41 H41           -2.3519    -0.9204    -0.6944 H       
  42 H42           -2.7805     1.6851    -0.5251 H       
  43 H43           -3.1783     0.6171     0.8369 H       
  44 H44           -0.0425     3.3085     0.8062 H       
  45 H45           -0.7328     2.6299    -0.6892 H       
  46 H46            1.1603    -2.3555     1.8352 H       
  47 H47            4.1005    -4.0868    -1.7349 H       
  48 H48           -2.9304     2.2962     2.4959 H       
  49 H49           -1.4862     3.3366     2.5002 H       
  50 H50           -2.6826     3.4803     1.1902 H       
  51 H51            5.5666     6.8944     0.4934 H       
  52 H52            4.6570     6.9063     3.1672 H       
  53 H53            6.2945     6.2094     3.1349 H       
  54 H54            6.0217     7.8684     2.5504 H       
  55 H55            4.0632     2.7071    -2.1423 H       
  56 H56            5.0160     2.4030    -3.6146 H       
  57 H57            5.7183     2.0649    -2.0144 H       
  58 H58            4.9753     6.1412    -3.0631 H       
  59 H59            4.3861     4.8554    -4.1437 H       
  60 H60            3.6590     5.0667    -2.5328 H       
  61 H61            7.6426     3.5496    -2.8996 H       
  62 H62            6.7124     3.9694    -4.3579 H       
  63 H63            7.3016     5.2553    -3.2773 H       
@<TRIPOS>BOND
   1    1    2 1
   2    1    3 2
   3    1   18 1
   4    2   14 1
   5    2    5 1
   6    3    4 1
   7    3    7 1
   8    4    5 2
   9    5    6 1
  10    6   20 ar
  11    6   19 ar
  12    7    8 2
  13    7   10 am
  14    9   10 1
  15    9   11 1
  16    9   12 1
  17    9   34 1
  18   10   35 1
  19   11   27 1
  20   11   36 1
  21   11   37 1
  22   12   13 2
  23   12   25 am
  24   14   15 1
  25   14   38 1
  26   14   39 1
  27   15   16 1
  28   15   40 1
  29   15   41 1
  30   16   17 1
  31   16   42 1
  32   16   43 1
  33   17   18 1
  34   17   24 1
  35   18   44 1
  36   18   45 1
  37   19   23 ar
  38   19   46 1
  39   20   21 ar
  40   20   33 1
  41   21   22 ar
  42   21   47 1
  43   22   23 ar
  44   22   31 1
  45   23   32 1
  46   24   48 1
  47   24   49 1
  48   24   50 1
  49   25   26 1
  50   25   51 1
  51   26   52 1
  52   26   53 1
  53   26   54 1
  54   27   29 1
  55   27   30 1
  56   27   28 1
  57   28   55 1
  58   28   56 1
  59   28   57 1
  60   29   58 1
  61   29   59 1
  62   29   60 1
  63   30   61 1
  64   30   62 1
  65   30   63 1

#	End of record

