#	Name: ASD01918091
#	Creating user name:	WinNT
#	Creation time:	15. 06. 2019 20:10

#	Modifying user name:	WinNT
#	Modification time:	15. 06. 2019 20:10

#	Program:	/corina/corina34_cracker 3.40 0067  02.08.2006

@<TRIPOS>MOLECULE
ASD01918091
  32   34    0    0    0
SMALL
NO_CHARGES


@<TRIPOS>ATOM
   1 C1            -0.0167     1.3784     0.0096 C.ar    
   2 C2             0.0021    -0.0041     0.0020 C.ar    
   3 C3             1.2074    -0.6814    -0.0127 C.ar    
   4 C4             2.3963     0.0221    -0.0203 C.ar    
   5 C5             2.3802     1.4093    -0.0132 C.ar    
   6 C6             1.1695     2.0865     0.0021 C.ar    
   7 O7             3.5484     2.1036    -0.0202 O.3     
   8 C8             3.4557     3.5296    -0.0122 C.3     
   9 C9             4.8408     4.1231    -0.0217 C.2     
  10 C10            6.0424     3.4063    -0.0417 C.2     
  11 N11            5.1314     5.4026    -0.0183 N.2     
  12 N12            6.3982     5.5890    -0.0283 N.pl3   
  13 C13            7.0249     4.3638    -0.0435 C.2     
  14 C14            8.4858     4.2316    -0.0623 C.2     
  15 C15            7.1287     6.8613    -0.0276 C.3     
  16 C16            8.5528     6.6405     0.4858 C.3     
  17 C17            9.2448     5.5276    -0.3102 C.3     
  18 O18            9.0469     3.1691     0.1075 O.2     
  19 H19           -0.9595     1.9052     0.0170 H       
  20 H20           -0.9263    -0.5558     0.0080 H       
  21 H21            1.2194    -1.7613    -0.0179 H       
  22 H22            3.3375    -0.5074    -0.0315 H       
  23 H23            1.1543     3.1664     0.0077 H       
  24 H24            2.9113     3.8632    -0.8956 H       
  25 H25            2.9274     3.8543     0.8842 H       
  26 H26            6.1687     2.3338    -0.0527 H       
  27 H27            7.1667     7.2580    -1.0421 H       
  28 H28            6.6163     7.5730     0.6198 H       
  29 H29            9.1208     7.5646     0.3784 H       
  30 H30            8.5160     6.3625     1.5391 H       
  31 H31           10.2769     5.4201     0.0234 H       
  32 H32            9.2232     5.7703    -1.3726 H       
@<TRIPOS>BOND
   1    1    2 ar
   2    1    6 ar
   3    1   19 1
   4    2    3 ar
   5    2   20 1
   6    3    4 ar
   7    3   21 1
   8    4    5 ar
   9    4   22 1
  10    5    6 ar
  11    5    7 1
  12    6   23 1
  13    7    8 1
  14    8    9 1
  15    8   24 1
  16    8   25 1
  17    9   11 2
  18    9   10 1
  19   10   13 2
  20   10   26 1
  21   11   12 1
  22   12   15 1
  23   12   13 1
  24   13   14 1
  25   14   17 1
  26   14   18 2
  27   15   16 1
  28   15   27 1
  29   15   28 1
  30   16   17 1
  31   16   29 1
  32   16   30 1
  33   17   31 1
  34   17   32 1

#	End of record

