#	Name: ASD01885462
#	Creating user name:	WinNT
#	Creation time:	15. 06. 2019 19:49

#	Modifying user name:	WinNT
#	Modification time:	15. 06. 2019 19:49

#	Program:	/corina/corina34_cracker 3.40 0067  02.08.2006

@<TRIPOS>MOLECULE
ASD01885462
  60   64    0    0    0
SMALL
NO_CHARGES


@<TRIPOS>ATOM
   1 C1             0.1484     1.2537     0.1294 C.ar    
   2 C2             0.2297    -0.1387     0.1496 C.ar    
   3 N3            -0.8510    -0.9581     0.2036 N.2     
   4 C4            -1.9470    -0.8154    -0.4480 C.2     
   5 C5            -2.1770     0.3577    -1.3643 C.3     
   6 C6            -2.1456     1.6159    -0.5340 C.2     
   7 N7            -1.0499     1.9553     0.1448 N.am    
   8 C8             1.3210     2.0070     0.0856 C.ar    
   9 C9             2.5588     1.3876     0.0566 C.ar    
  10 C10            2.6407    -0.0013     0.0711 C.ar    
  11 C11            1.4934    -0.7554     0.1171 C.ar    
  12 C12           -3.0081    -1.8254    -0.2962 C.ar    
  13 O13           -3.1271     2.3267    -0.4844 O.2     
  14 C14           -2.7765    -2.9777     0.4614 C.ar    
  15 C15           -3.7710    -3.9240     0.6027 C.ar    
  16 C16           -4.9996    -3.7395    -0.0015 C.ar    
  17 C17           -5.2441    -2.5944    -0.7597 C.ar    
  18 C18           -4.2504    -1.6328    -0.9037 C.ar    
  19 N19            3.7256     2.1570     0.0124 N.am    
  20 C20            4.8357     1.7349     0.6496 C.2     
  21 C21           -6.5651    -2.4002    -1.4071 C.ar    
  22 O22            4.7960     0.7382     1.3436 O.2     
  23 O23            5.9890     2.4178     0.5170 O.3     
  24 C24            7.0942     1.8813     1.0987 C.ar    
  25 C25           -7.5786    -3.3527    -1.2699 C.ar    
  26 C26           -8.7922    -3.1327    -1.8886 C.ar    
  27 N27           -9.0010    -2.0424    -2.6014 N.ar    
  28 C28           -8.0713    -1.1193    -2.7557 C.ar    
  29 C29           -6.8316    -1.2572    -2.1659 C.ar    
  30 C30           -8.3694     0.1052    -3.5820 C.3     
  31 C31           -9.8935    -4.1518    -1.7487 C.3     
  32 C32            7.7226     0.7881     0.5203 C.ar    
  33 C33            8.8459     0.2450     1.1131 C.ar    
  34 C34            9.3440     0.7900     2.2821 C.ar    
  35 C35            8.7193     1.8793     2.8609 C.ar    
  36 C36            7.5990     2.4296     2.2688 C.ar    
  37 H37           -1.3909     0.3950    -2.1186 H       
  38 H38           -3.1484     0.2610    -1.8491 H       
  39 H39           -1.0928     2.7536     0.6941 H       
  40 H40            1.2629     3.0854     0.0739 H       
  41 H41            3.6054    -0.4861     0.0465 H       
  42 H42            1.5624    -1.8331     0.1279 H       
  43 H43           -1.8181    -3.1275     0.9362 H       
  44 H44           -3.5880    -4.8130     1.1881 H       
  45 H45           -5.7731    -4.4845     0.1131 H       
  46 H46           -4.4359    -0.7447    -1.4896 H       
  47 H47            3.7360     2.9945    -0.4769 H       
  48 H48           -7.4143    -4.2479    -0.6885 H       
  49 H49           -6.0751    -0.4975    -2.2964 H       
  50 H50           -8.7823     0.8843    -2.9411 H       
  51 H51           -7.4499     0.4644    -4.0442 H       
  52 H52           -9.0917    -0.1473    -4.3583 H       
  53 H53          -10.4998    -3.9138    -0.8747 H       
  54 H54          -10.5197    -4.1348    -2.6408 H       
  55 H55           -9.4577    -5.1437    -1.6295 H       
  56 H56            7.3336     0.3619    -0.3927 H       
  57 H57            9.3352    -0.6063     0.6633 H       
  58 H58           10.2224     0.3640     2.7441 H       
  59 H59            9.1101     2.3030     3.7742 H       
  60 H60            7.1114     3.2804     2.7213 H       
@<TRIPOS>BOND
   1    1    2 ar
   2    1    8 ar
   3    1    7 1
   4    2    3 1
   5    2   11 ar
   6    3    4 2
   7    4    5 1
   8    4   12 1
   9    5    6 1
  10    5   37 1
  11    5   38 1
  12    6    7 am
  13    6   13 2
  14    7   39 1
  15    8    9 ar
  16    8   40 1
  17    9   10 ar
  18    9   19 1
  19   10   11 ar
  20   10   41 1
  21   11   42 1
  22   12   14 ar
  23   12   18 ar
  24   14   15 ar
  25   14   43 1
  26   15   16 ar
  27   15   44 1
  28   16   17 ar
  29   16   45 1
  30   17   18 ar
  31   17   21 1
  32   18   46 1
  33   19   20 am
  34   19   47 1
  35   20   22 2
  36   20   23 1
  37   21   25 ar
  38   21   29 ar
  39   23   24 1
  40   24   32 ar
  41   24   36 ar
  42   25   26 ar
  43   25   48 1
  44   26   27 ar
  45   26   31 1
  46   27   28 ar
  47   28   29 ar
  48   28   30 1
  49   29   49 1
  50   30   50 1
  51   30   51 1
  52   30   52 1
  53   31   53 1
  54   31   54 1
  55   31   55 1
  56   32   33 ar
  57   32   56 1
  58   33   34 ar
  59   33   57 1
  60   34   35 ar
  61   34   58 1
  62   35   36 ar
  63   35   59 1
  64   36   60 1

#	End of record

