#	Name: ASD00460035
#	Creating user name:	WinNT
#	Creation time:	15. 06. 2019 18:36

#	Modifying user name:	WinNT
#	Modification time:	15. 06. 2019 18:36

#	Program:	/corina/corina34_cracker 3.40 0067  02.08.2006

@<TRIPOS>MOLECULE
ASD00460035
  79   83    0    0    0
SMALL
NO_CHARGES


@<TRIPOS>ATOM
   1 O1            -0.0381     0.1032    -0.4268 O.2     
   2 C2            -0.6582     1.1334    -0.6058 C.2     
   3 N3            -0.0062     2.3118    -0.6588 N.am    
   4 C4             1.4497     2.3512    -0.5009 C.3     
   5 C5             2.1153     2.2129    -1.8715 C.3     
   6 C6             3.6359     2.2540    -1.7065 C.3     
   7 C7             4.2928     1.9952    -3.0379 C.ar    
   8 C8             3.9242     2.7351    -4.1459 C.ar    
   9 C9             4.5268     2.4977    -5.3671 C.ar    
  10 C10            5.4982     1.5207    -5.4803 C.ar    
  11 C11            5.8674     0.7815    -4.3721 C.ar    
  12 C12            5.2679     1.0219    -3.1499 C.ar    
  13 C13            4.0494     3.6109    -1.1976 C.ar    
  14 C14            4.8576     3.7134    -0.0808 C.ar    
  15 C15            5.2369     4.9580     0.3860 C.ar    
  16 C16            4.8083     6.1001    -0.2642 C.ar    
  17 C17            4.0008     5.9976    -1.3815 C.ar    
  18 C18            3.6251     4.7529    -1.8509 C.ar    
  19 C19           -0.7535     3.5533    -0.8745 C.3     
  20 C20           -1.1724     4.1376     0.4761 C.3     
  21 N21           -1.9217     5.3825     0.2599 N.3     
  22 C22           -2.5426     5.8474     1.5087 C.3     
  23 C23           -3.2612     7.1746     1.2518 C.3     
  24 O24           -4.2187     6.9975     0.2044 O.3     
  25 C25           -3.6483     6.5458    -1.0268 C.3     
  26 C26           -2.9336     5.2122    -0.7930 C.3     
  27 N27           -1.9970     1.0966    -0.7567 N.am    
  28 C28           -2.6675    -0.1171    -0.7077 C.2     
  29 S29           -1.9850    -1.6800    -0.4655 S.3     
  30 N30           -3.4724    -2.4969    -0.5521 N.2     
  31 C31           -4.3758    -1.5704    -0.7533 C.2     
  32 N32           -3.9595    -0.3200    -0.8305 N.2     
  33 C33           -5.8131    -1.9124    -0.8837 C.ar    
  34 C34           -6.2256    -3.2410    -0.7920 C.ar    
  35 C35           -7.5620    -3.5566    -0.9136 C.ar    
  36 C36           -8.4980    -2.5513    -1.1279 C.ar    
  37 C37           -8.0887    -1.2258    -1.2201 C.ar    
  38 C38           -6.7542    -0.9051    -1.0925 C.ar    
  39 N39           -9.8503    -2.8731    -1.2511 N.am    
  40 S40          -10.7275    -3.2910     0.0899 S.o2    
  41 O41          -12.0353    -3.5357    -0.4091 O.2     
  42 O42           -9.9685    -4.3285     0.6958 O.2     
  43 C43          -10.7094    -1.8014     1.1250 C.3     
  44 H44            1.7407     3.2999    -0.0497 H       
  45 H45            1.7677     1.5305     0.1420 H       
  46 H46            1.8244     1.2643    -2.3226 H       
  47 H47            1.7973     3.0337    -2.5144 H       
  48 H48            3.9448     1.4891    -0.9941 H       
  49 H49            3.1653     3.4984    -4.0575 H       
  50 H50            4.2384     3.0752    -6.2330 H       
  51 H51            5.9685     1.3348    -6.4346 H       
  52 H52            6.6261     0.0180    -4.4605 H       
  53 H53            5.5564     0.4443    -2.2840 H       
  54 H54            5.1925     2.8210     0.4271 H       
  55 H55            5.8678     5.0381     1.2589 H       
  56 H56            5.1041     7.0725     0.1010 H       
  57 H57            3.6657     6.8900    -1.8892 H       
  58 H58            2.9942     4.6728    -2.7238 H       
  59 H59           -0.1231     4.2701    -1.4006 H       
  60 H60           -1.6415     3.3440    -1.4710 H       
  61 H61           -1.8029     3.4208     1.0022 H       
  62 H62           -0.2845     4.3469     1.0726 H       
  63 H63           -3.2616     5.1054     1.8559 H       
  64 H64           -1.7724     5.9912     2.2665 H       
  65 H65           -3.7709     7.4944     2.1607 H       
  66 H66           -2.5341     7.9309     0.9562 H       
  67 H67           -4.4379     6.4109    -1.7660 H       
  68 H68           -2.9324     7.2839    -1.3887 H       
  69 H69           -2.4488     4.8925    -1.7154 H       
  70 H70           -3.6589     4.4601    -0.4826 H       
  71 H71           -2.4918     1.9186    -0.8994 H       
  72 H72           -5.4987    -4.0223    -0.6263 H       
  73 H73           -7.8820    -4.5857    -0.8426 H       
  74 H74           -8.8174    -0.4465    -1.3873 H       
  75 H75           -6.4367     0.1247    -1.1638 H       
  76 H76          -10.2765    -2.8520    -2.1222 H       
  77 H77          -11.2000    -0.9849     0.5952 H       
  78 H78          -11.2389    -2.0001     2.0568 H       
  79 H79           -9.6784    -1.5243     1.3449 H       
@<TRIPOS>BOND
   1    1    2 2
   2    2    3 am
   3    2   27 am
   4    3    4 1
   5    3   19 1
   6    4    5 1
   7    4   44 1
   8    4   45 1
   9    5    6 1
  10    5   46 1
  11    5   47 1
  12    6    7 1
  13    6   13 1
  14    6   48 1
  15    7    8 ar
  16    7   12 ar
  17    8    9 ar
  18    8   49 1
  19    9   10 ar
  20    9   50 1
  21   10   11 ar
  22   10   51 1
  23   11   12 ar
  24   11   52 1
  25   12   53 1
  26   13   14 ar
  27   13   18 ar
  28   14   15 ar
  29   14   54 1
  30   15   16 ar
  31   15   55 1
  32   16   17 ar
  33   16   56 1
  34   17   18 ar
  35   17   57 1
  36   18   58 1
  37   19   20 1
  38   19   59 1
  39   19   60 1
  40   20   21 1
  41   20   61 1
  42   20   62 1
  43   21   22 1
  44   21   26 1
  45   22   23 1
  46   22   63 1
  47   22   64 1
  48   23   24 1
  49   23   65 1
  50   23   66 1
  51   24   25 1
  52   25   26 1
  53   25   67 1
  54   25   68 1
  55   26   69 1
  56   26   70 1
  57   27   28 1
  58   27   71 1
  59   28   29 1
  60   28   32 2
  61   29   30 1
  62   30   31 2
  63   31   32 1
  64   31   33 1
  65   33   34 ar
  66   33   38 ar
  67   34   35 ar
  68   34   72 1
  69   35   36 ar
  70   35   73 1
  71   36   37 ar
  72   36   39 1
  73   37   38 ar
  74   37   74 1
  75   38   75 1
  76   39   40 am
  77   39   76 1
  78   40   41 2
  79   40   42 2
  80   40   43 1
  81   43   77 1
  82   43   78 1
  83   43   79 1

#	End of record

