#	Name: ASD00431416
#	Creating user name:	WinNT
#	Creation time:	15. 06. 2019 18:35

#	Modifying user name:	WinNT
#	Modification time:	15. 06. 2019 18:35

#	Program:	/corina/corina34_cracker 3.40 0067  02.08.2006

@<TRIPOS>MOLECULE
ASD00431416
  46   48    0    0    0
SMALL
NO_CHARGES


@<TRIPOS>ATOM
   1 C1            -0.0119     1.5128     0.0962 C.3     
   2 C2             0.0066    -0.0170     0.0806 C.3     
   3 O3             2.1852     2.1444    -1.0240 O.3     
   4 N4             3.2727     2.5949    -0.7480 N.2     
   5 C5             3.3751     2.8460     0.5339 C.2     
   6 C6             2.1270     2.4771     1.1097 C.2     
   7 C7             1.4021     2.0327     0.0584 C.2     
   8 C8             4.5541     3.4023     1.2421 C.ar    
   9 C9             5.7117     3.7157     0.5316 C.ar    
  10 C10            6.8059     4.2325     1.1923 C.ar    
  11 C11            6.7555     4.4411     2.5644 C.ar    
  12 C12            5.6036     4.1294     3.2749 C.ar    
  13 C13            4.5043     3.6180     2.6184 C.ar    
  14 O14            7.8349     4.9504     3.2128 O.3     
  15 C15            8.2056     6.2252     2.9294 C.ar    
  16 C16            9.2397     6.8148     3.6452 C.ar    
  17 C17            9.6098     8.1145     3.3484 C.ar    
  18 C18            8.9262     8.7841     2.3371 C.ar    
  19 C19            7.9050     8.1320     1.6657 C.ar    
  20 N20            7.5819     6.8896     1.9714 N.ar    
  21 O21            9.2566    10.0628     2.0127 O.3     
  22 C22           10.2248    10.7122     2.8391 C.3     
  23 C23           11.6171    10.5326     2.2307 C.3     
  24 C24            9.8975    12.2039     2.9323 C.3     
  25 N25           -0.7463     2.0056    -1.0768 N.3     
  26 H26           -0.5029     1.8610     1.0049 H       
  27 H27            0.4977    -0.3652    -0.8281 H       
  28 H28            0.5515    -0.3826     0.9510 H       
  29 H29           -1.0161    -0.3930     0.1079 H       
  30 H30            1.8285     2.5376     2.1459 H       
  31 H31            5.7516     3.5534    -0.5354 H       
  32 H32            7.7032     4.4752     0.6424 H       
  33 H33            5.5674     4.2919     4.3420 H       
  34 H34            3.6070     3.3806     3.1706 H       
  35 H35            9.7483     6.2658     4.4239 H       
  36 H36           10.4100     8.5984     3.8888 H       
  37 H37            7.3698     8.6448     0.8803 H       
  38 H38           10.2046    10.2728     3.8364 H       
  39 H39           11.6373    10.9721     1.2334 H       
  40 H40           12.3557    11.0280     2.8610 H       
  41 H41           11.8503     9.4700     2.1643 H       
  42 H42            8.9055    12.3318     3.3657 H       
  43 H43           10.6360    12.6992     3.5626 H       
  44 H44            9.9176    12.6433     1.9350 H       
  45 H45           -0.2751     1.7505    -1.9318 H       
  46 H46           -1.6980     1.6704    -1.0746 H       
@<TRIPOS>BOND
   1    1    2 1
   2    1    7 1
   3    1   25 1
   4    1   26 1
   5    2   27 1
   6    2   28 1
   7    2   29 1
   8    3    4 1
   9    3    7 1
  10    4    5 2
  11    5    6 1
  12    5    8 1
  13    6    7 2
  14    6   30 1
  15    8    9 ar
  16    8   13 ar
  17    9   10 ar
  18    9   31 1
  19   10   11 ar
  20   10   32 1
  21   11   12 ar
  22   11   14 1
  23   12   13 ar
  24   12   33 1
  25   13   34 1
  26   14   15 1
  27   15   16 ar
  28   15   20 ar
  29   16   17 ar
  30   16   35 1
  31   17   18 ar
  32   17   36 1
  33   18   19 ar
  34   18   21 1
  35   19   20 ar
  36   19   37 1
  37   21   22 1
  38   22   23 1
  39   22   24 1
  40   22   38 1
  41   23   39 1
  42   23   40 1
  43   23   41 1
  44   24   42 1
  45   24   43 1
  46   24   44 1
  47   25   45 1
  48   25   46 1

#	End of record

