#	Name: ASD01913233
#	Creating user name:	WinNT
#	Creation time:	15. 06. 2019 20:01

#	Modifying user name:	WinNT
#	Modification time:	15. 06. 2019 20:01

#	Program:	/corina/corina34_cracker 3.40 0067  02.08.2006

@<TRIPOS>MOLECULE
ASD01913233
  44   47    0    0    0
SMALL
NO_CHARGES


@<TRIPOS>ATOM
   1 C1             0.9362     1.4260    -3.4760 C.ar    
   2 C2             0.9463     0.0433    -3.4751 C.ar    
   3 N3             1.9297    -0.6263    -2.9096 N.ar    
   4 C4             2.9467    -0.0047    -2.3205 C.ar    
   5 C5             2.9995     1.3915    -2.2855 C.ar    
   6 C6             1.9786     2.1166    -2.8719 C.ar    
   7 C7             3.9951    -0.7711    -1.7172 C.1     
   8 C8             4.8547    -1.3994    -1.2226 C.1     
   9 C9             5.9031    -2.1659    -0.6192 C.ar    
  10 C10            6.9781    -1.5182     0.0035 C.ar    
  11 C11            7.9907    -2.2596     0.5867 C.ar    
  12 C12            7.9483    -3.6380     0.5588 C.ar    
  13 C13            6.8814    -4.2967    -0.0592 C.ar    
  14 C14            5.8545    -3.5591    -0.6446 C.ar    
  15 F15            7.0265    -0.1684     0.0342 F       
  16 C16            6.8400    -5.7734    -0.0868 C.2     
  17 N17            7.9833    -6.4776    -0.2018 N.am    
  18 O18            5.7746    -6.3532    -0.0057 O.2     
  19 C19            7.9916    -7.9466    -0.1022 C.3     
  20 C20            8.4328    -8.5062    -1.4538 C.3     
  21 C21            9.6590    -7.7904    -1.9560 C.ar    
  22 C22           10.0416    -6.5507    -1.4956 C.ar    
  23 C23            9.2692    -5.8120    -0.4373 C.3     
  24 C24           10.4230    -8.4256    -2.9278 C.ar    
  25 C25           11.5539    -7.8223    -3.4366 C.ar    
  26 C26           11.9327    -6.5740    -2.9783 C.ar    
  27 C27           11.1779    -5.9423    -2.0117 C.ar    
  28 H28            0.1266     1.9644    -3.9463 H       
  29 H29            0.1364    -0.4953    -3.9445 H       
  30 H30            3.8253     1.8966    -1.8067 H       
  31 H31            1.9920     3.1965    -2.8611 H       
  32 H32            8.8179    -1.7568     1.0655 H       
  33 H33            8.7422    -4.2103     1.0157 H       
  34 H34            5.0284    -4.0644    -1.1228 H       
  35 H35            8.6911    -8.2599     0.6728 H       
  36 H36            6.9905    -8.3057     0.1365 H       
  37 H37            8.6561    -9.5677    -1.3466 H       
  38 H38            7.6246    -8.3817    -2.1745 H       
  39 H39            9.0962    -4.7866    -0.7637 H       
  40 H40            9.8409    -5.8051     0.4907 H       
  41 H41           10.1286    -9.4004    -3.2875 H       
  42 H42           12.1424    -8.3237    -4.1907 H       
  43 H43           12.8160    -6.0956    -3.3752 H       
  44 H44           11.4729    -4.9669    -1.6540 H       
@<TRIPOS>BOND
   1    1    2 ar
   2    1    6 ar
   3    1   28 1
   4    2    3 ar
   5    2   29 1
   6    3    4 ar
   7    4    5 ar
   8    4    7 1
   9    5    6 ar
  10    5   30 1
  11    6   31 1
  12    7    8 3
  13    8    9 1
  14    9   10 ar
  15    9   14 ar
  16   10   11 ar
  17   10   15 1
  18   11   12 ar
  19   11   32 1
  20   12   13 ar
  21   12   33 1
  22   13   14 ar
  23   13   16 1
  24   14   34 1
  25   16   17 am
  26   16   18 2
  27   17   19 1
  28   17   23 1
  29   19   20 1
  30   19   35 1
  31   19   36 1
  32   20   21 1
  33   20   37 1
  34   20   38 1
  35   21   22 ar
  36   21   24 ar
  37   22   23 1
  38   22   27 ar
  39   23   39 1
  40   23   40 1
  41   24   25 ar
  42   24   41 1
  43   25   26 ar
  44   25   42 1
  45   26   27 ar
  46   26   43 1
  47   27   44 1

#	End of record

