#	Name: ASD04590786
#	Creating user name:	WinNT
#	Creation time:	15. 06. 2019 20:51

#	Modifying user name:	WinNT
#	Modification time:	15. 06. 2019 20:51

#	Program:	/corina/corina34_cracker 3.40 0067  02.08.2006

@<TRIPOS>MOLECULE
ASD04590786
  61   66    0    0    0
SMALL
NO_CHARGES


@<TRIPOS>ATOM
   1 N1            -0.0171     1.3231    -0.0119 N.ar    
   2 C2             0.0017    -0.0035    -0.0051 C.ar    
   3 N3             1.1297    -0.6949    -0.0122 N.ar    
   4 C4             2.3049    -0.0729    -0.0266 C.ar    
   5 C5             2.3189     1.3365    -0.0341 C.ar    
   6 C6             1.1072     2.0202    -0.0262 C.ar    
   7 N7             3.6030    -0.5196    -0.0370 N.pl3   
   8 C8             4.4822     0.5494    -0.0512 C.ar    
   9 C9             3.7312     1.7384    -0.0500 C.ar    
  10 C10            5.8680     0.6416    -0.0662 C.ar    
  11 N11            6.4612     1.8178    -0.0785 N.ar    
  12 C12            5.7850     2.9530    -0.0778 C.ar    
  13 C13            4.4064     2.9583    -0.0634 C.ar    
  14 C14            4.0016    -1.9293    -0.0328 C.3     
  15 N15           -1.2023    -0.6889     0.0103 N.pl3   
  16 C16           -2.3999     0.0104     0.1310 C.ar    
  17 N17           -2.3780     1.3188     0.3317 N.ar    
  18 C18           -3.4900     2.0191     0.4517 C.ar    
  19 C19           -4.7245     1.4066     0.3713 C.ar    
  20 C20           -4.7911     0.0355     0.1615 C.ar    
  21 C21           -3.6087    -0.6709     0.0341 C.ar    
  22 C22           -5.9871     2.2176     0.5104 C.3     
  23 C23           -6.4238     2.7041    -0.8474 C.2     
  24 C24            3.4009    -2.6447     1.1949 C.3     
  25 C25            3.4375    -2.6403    -1.2754 C.3     
  26 C26            2.5137    -3.7629    -0.7594 C.3     
  27 C27            2.1012    -3.2940     0.6580 C.3     
  28 O28           -5.7738     2.4202    -1.8312 O.2     
  29 N29           -7.5367     3.4546    -0.9685 N.am    
  30 C30           -7.9828     3.9411    -2.2836 C.3     
  31 C31           -9.4646     3.5864    -2.4531 C.3     
  32 O32          -10.1948     4.0611    -1.3194 O.3     
  33 C33           -9.8059     3.4631    -0.0805 C.3     
  34 C34           -8.3448     3.8067     0.2098 C.3     
  35 H35            1.0848     3.0999    -0.0316 H       
  36 H36            6.4644    -0.2588    -0.0674 H       
  37 H37            6.3204     3.8910    -0.0883 H       
  38 H38            3.8597     3.8897    -0.0630 H       
  39 H39            5.0885    -2.0097    -0.0180 H       
  40 H40           -1.2107    -1.6561    -0.0630 H       
  41 H41           -3.4334     3.0852     0.6151 H       
  42 H42           -5.7446    -0.4672     0.0949 H       
  43 H43           -3.6237    -1.7383    -0.1299 H       
  44 H44           -6.7715     1.5972     0.9437 H       
  45 H45           -5.7999     3.0728     1.1599 H       
  46 H46            4.0850    -3.4090     1.5636 H       
  47 H47            3.1715    -1.9254     1.9811 H       
  48 H48            2.8671    -1.9365    -1.8816 H       
  49 H49            4.2506    -3.0664    -1.8631 H       
  50 H50            1.6367    -3.8596    -1.3995 H       
  51 H51            3.0545    -4.7078    -0.7063 H       
  52 H52            1.8097    -4.1430     1.2762 H       
  53 H53            1.2969    -2.5603     0.6033 H       
  54 H54           -7.8557     5.0223    -2.3376 H       
  55 H55           -7.3986     3.4625    -3.0696 H       
  56 H56           -9.8503     4.0567    -3.3576 H       
  57 H57           -9.5735     2.5046    -2.5294 H       
  58 H58          -10.4373     3.8446     0.7220 H       
  59 H59           -9.9162     2.3808    -0.1482 H       
  60 H60           -7.9998     3.2415     1.0756 H       
  61 H61           -8.2510     4.8746     0.4067 H       
@<TRIPOS>BOND
   1    1    2 ar
   2    1    6 ar
   3    2    3 ar
   4    2   15 1
   5    3    4 ar
   6    4    5 ar
   7    4    7 1
   8    5    6 ar
   9    5    9 1
  10    6   35 1
  11    7    8 1
  12    7   14 1
  13    8    9 ar
  14    8   10 ar
  15    9   13 ar
  16   10   11 ar
  17   10   36 1
  18   11   12 ar
  19   12   13 ar
  20   12   37 1
  21   13   38 1
  22   14   25 1
  23   14   24 1
  24   14   39 1
  25   15   16 1
  26   15   40 1
  27   16   17 ar
  28   16   21 ar
  29   17   18 ar
  30   18   19 ar
  31   18   41 1
  32   19   20 ar
  33   19   22 1
  34   20   21 ar
  35   20   42 1
  36   21   43 1
  37   22   23 1
  38   22   44 1
  39   22   45 1
  40   23   28 2
  41   23   29 am
  42   24   27 1
  43   24   46 1
  44   24   47 1
  45   25   26 1
  46   25   48 1
  47   25   49 1
  48   26   27 1
  49   26   50 1
  50   26   51 1
  51   27   52 1
  52   27   53 1
  53   29   30 1
  54   29   34 1
  55   30   31 1
  56   30   54 1
  57   30   55 1
  58   31   32 1
  59   31   56 1
  60   31   57 1
  61   32   33 1
  62   33   34 1
  63   33   58 1
  64   33   59 1
  65   34   60 1
  66   34   61 1

#	End of record

