#	Name: ASD01120192
#	Creating user name:	WinNT
#	Creation time:	15. 06. 2019 18:59

#	Modifying user name:	WinNT
#	Modification time:	15. 06. 2019 18:59

#	Program:	/corina/corina34_cracker 3.40 0067  02.08.2006

@<TRIPOS>MOLECULE
ASD01120192
  36   39    0    0    0
SMALL
NO_CHARGES


@<TRIPOS>ATOM
   1 C1            -6.8438    -3.5048    -4.3786 C.ar    
   2 C2            -8.1663    -3.8396    -4.1281 C.ar    
   3 C3            -8.9067    -3.1250    -3.2077 C.ar    
   4 C4            -8.3277    -2.0663    -2.5280 C.ar    
   5 C5            -6.9900    -1.7240    -2.7776 C.ar    
   6 C6            -6.2506    -2.4570    -3.7062 C.ar    
   7 O7            -8.7760    -1.1973    -1.5926 O.3     
   8 C8            -7.7702    -0.3617    -1.2796 C.2     
   9 N9            -6.7033    -0.6621    -1.9752 N.2     
  10 Cl10          -5.9281    -4.4141    -5.5398 Cl      
  11 N11           -7.8509     0.6607    -0.3615 N.am    
  12 S12           -6.5047     1.5527     0.0051 S.o2    
  13 O13           -6.9152     2.5269     0.9546 O.2     
  14 O14           -5.4602     0.6207     0.2498 O.2     
  15 C15           -6.0522     2.4363    -1.4506 C.ar    
  16 C16           -6.9362     2.5254    -2.5079 C.ar    
  17 C17           -6.5815     3.2184    -3.6510 C.ar    
  18 C18           -5.3419     3.8242    -3.7388 C.ar    
  19 C19           -4.4536     3.7388    -2.6842 C.ar    
  20 C20           -4.8088     3.0484    -1.5336 C.ar    
  21 C21           -4.1500     3.3212     0.8260 C.2     
  22 N22           -3.0751     3.0911     1.5298 N.2     
  23 C23           -2.1227     2.5833     0.7336 C.2     
  24 C24           -2.6217     2.4930    -0.5139 C.2     
  25 N25           -3.9094     2.9604    -0.4613 N.pl3   
  26 H26           -8.6201    -4.6648    -4.6569 H       
  27 H27           -9.9361    -3.3909    -3.0182 H       
  28 H28           -5.2204    -2.1998    -3.9035 H       
  29 H29           -8.6964     0.8587     0.0708 H       
  30 H30           -7.9053     2.0532    -2.4421 H       
  31 H31           -7.2742     3.2862    -4.4768 H       
  32 H32           -5.0675     4.3643    -4.6328 H       
  33 H33           -3.4852     4.2119    -2.7534 H       
  34 H34           -5.0768     3.7262     1.2046 H       
  35 H35           -1.1275     2.2969     1.0399 H       
  36 H36           -2.1063     2.1233    -1.3880 H       
@<TRIPOS>BOND
   1    1    2 ar
   2    1   10 1
   3    1    6 ar
   4    2    3 ar
   5    2   26 1
   6    3    4 ar
   7    3   27 1
   8    4    5 ar
   9    4    7 1
  10    5    6 ar
  11    5    9 1
  12    6   28 1
  13    7    8 1
  14    8    9 2
  15    8   11 1
  16   11   12 am
  17   11   29 1
  18   12   13 2
  19   12   14 2
  20   12   15 1
  21   15   16 ar
  22   15   20 ar
  23   16   17 ar
  24   16   30 1
  25   17   18 ar
  26   17   31 1
  27   18   19 ar
  28   18   32 1
  29   19   20 ar
  30   19   33 1
  31   20   25 1
  32   21   22 2
  33   21   25 1
  34   21   34 1
  35   22   23 1
  36   23   24 2
  37   23   35 1
  38   24   25 1
  39   24   36 1

#	End of record

