#	Name: ASD03330603
#	Creating user name:	WinNT
#	Creation time:	15. 06. 2019 20:37

#	Modifying user name:	WinNT
#	Modification time:	15. 06. 2019 20:37

#	Program:	/corina/corina34_cracker 3.40 0067  02.08.2006

@<TRIPOS>MOLECULE
ASD03330603
  79   82    0    0    0
SMALL
NO_CHARGES


@<TRIPOS>ATOM
   1 C1             1.3709     1.4443    -0.3955 C.2     
   2 N2             1.3598     0.1598    -0.8397 N.pl3   
   3 C3             2.6703     1.7727    -0.1530 C.2     
   4 N4             3.4313     0.7014    -0.4654 N.2     
   5 C5             2.6539    -0.2694    -0.8839 C.2     
   6 C6             3.1055    -1.6062    -1.3293 C.ar    
   7 C7             3.1586     3.0657     0.3583 C.2     
   8 O8             2.3709     3.9592     0.6038 O.2     
   9 C9             4.9636     4.5435     1.0621 C.3     
  10 N10            4.4782     3.2581     0.5539 N.am    
  11 C11            4.8854     4.5501     2.5901 C.3     
  12 C12            5.6492     3.3461     3.1451 C.3     
  13 C13            5.5078     5.8405     3.1271 C.3     
  14 C14            3.4210     4.4702     3.0262 C.3     
  15 C15            6.3934     4.7463     0.6314 C.2     
  16 N16            6.9472     5.9737     0.6900 N.am    
  17 O17            7.0458     3.8051     0.2322 O.2     
  18 C18            8.2954     6.1950     0.1614 C.3     
  19 C19            0.1615    -0.6087    -1.1877 C.3     
  20 C20           -0.7434     0.2478    -2.0788 C.3     
  21 C21           -1.6737     1.0897    -1.2115 C.3     
  22 N22           -1.0156     1.4880     0.0344 N.3     
  23 C23            0.1622     2.3282    -0.2284 C.3     
  24 C24           -1.9575     2.1682     0.9332 C.3     
  25 C25            4.7741    -3.0209    -2.3388 C.ar    
  26 C26            3.9371    -4.1242    -2.1595 C.ar    
  27 C27            2.6957    -3.9650    -1.5762 C.ar    
  28 C28            2.2760    -2.7168    -1.1613 C.ar    
  29 C29            4.3562    -1.7584    -1.9221 C.ar    
  30 C30            6.1030    -3.1926    -2.9640 C.2     
  31 O31            6.4809    -2.4094    -3.8133 O.2     
  32 N32            6.8953    -4.2176    -2.5922 N.am    
  33 C33            8.2618    -4.3457    -3.1208 C.3     
  34 C34            6.4185    -5.2342    -1.6423 C.3     
  35 C35            7.4571    -5.3821    -0.5254 C.3     
  36 N36            8.7734    -5.6545    -1.1180 N.3     
  37 C37            9.2242    -4.5303    -1.9427 C.3     
  38 C38            9.7626    -5.9726    -0.0796 C.3     
  39 H39            4.3463     5.3484     0.6633 H       
  40 H40            5.1064     2.5455     0.3581 H       
  41 H41            6.6925     3.4030     2.8344 H       
  42 H42            5.5935     3.3508     4.2336 H       
  43 H43            5.2058     2.4268     2.7625 H       
  44 H44            4.9591     6.6980     2.7375 H       
  45 H45            5.4585     5.8419     4.2160 H       
  46 H46            6.5490     5.9009     2.8104 H       
  47 H47            2.9777     3.5508     2.6437 H       
  48 H48            3.3653     4.4749     4.1148 H       
  49 H49            2.8769     5.3279     2.6309 H       
  50 H50            6.4530     6.7106     1.0820 H       
  51 H51            8.3147     5.9477    -0.9000 H       
  52 H52            8.5713     7.2409     0.2959 H       
  53 H53            9.0035     5.5609     0.6950 H       
  54 H54            0.4512    -1.5123    -1.7242 H       
  55 H55           -0.3743    -0.8800    -0.2781 H       
  56 H56           -0.1289     0.9046    -2.6946 H       
  57 H57           -1.3368    -0.4010    -2.7230 H       
  58 H58           -1.9659     1.9832    -1.7631 H       
  59 H59           -2.5653     0.5089    -0.9751 H       
  60 H60            0.3201     3.0069     0.6098 H       
  61 H61            0.0030     2.9041    -1.1401 H       
  62 H62           -2.7813     1.4958     1.1727 H       
  63 H63           -1.4428     2.4532     1.8508 H       
  64 H64           -2.3475     3.0604     0.4432 H       
  65 H65            4.2613    -5.1039    -2.4782 H       
  66 H66            2.0519    -4.8214    -1.4401 H       
  67 H67            1.3041    -2.5992    -0.7053 H       
  68 H68            4.9995    -0.9017    -2.0586 H       
  69 H69            8.3197    -5.2118    -3.7801 H       
  70 H70            8.5271    -3.4438    -3.6724 H       
  71 H71            5.4655    -4.9195    -1.2169 H       
  72 H72            6.2960    -6.1873    -2.1569 H       
  73 H73            7.5027    -4.4595     0.0533 H       
  74 H74            7.1742    -6.2078     0.1274 H       
  75 H75           10.2241    -4.7370    -2.3242 H       
  76 H76            9.2449    -3.6223    -1.3399 H       
  77 H77            9.4386    -6.8547     0.4727 H       
  78 H78           10.7279    -6.1700    -0.5457 H       
  79 H79            9.8551    -5.1292     0.6046 H       
@<TRIPOS>BOND
   1    1    2 1
   2    1    3 2
   3    1   23 1
   4    2   19 1
   5    2    5 1
   6    3    4 1
   7    3    7 1
   8    4    5 2
   9    5    6 1
  10    6   29 ar
  11    6   28 ar
  12    7    8 2
  13    7   10 am
  14    9   10 1
  15    9   11 1
  16    9   15 1
  17    9   39 1
  18   10   40 1
  19   11   12 1
  20   11   13 1
  21   11   14 1
  22   12   41 1
  23   12   42 1
  24   12   43 1
  25   13   44 1
  26   13   45 1
  27   13   46 1
  28   14   47 1
  29   14   48 1
  30   14   49 1
  31   15   16 am
  32   15   17 2
  33   16   18 1
  34   16   50 1
  35   18   51 1
  36   18   52 1
  37   18   53 1
  38   19   20 1
  39   19   54 1
  40   19   55 1
  41   20   21 1
  42   20   56 1
  43   20   57 1
  44   21   22 1
  45   21   58 1
  46   21   59 1
  47   22   23 1
  48   22   24 1
  49   23   60 1
  50   23   61 1
  51   24   62 1
  52   24   63 1
  53   24   64 1
  54   25   26 ar
  55   25   30 1
  56   25   29 ar
  57   26   27 ar
  58   26   65 1
  59   27   28 ar
  60   27   66 1
  61   28   67 1
  62   29   68 1
  63   30   31 2
  64   30   32 am
  65   32   33 1
  66   32   34 1
  67   33   37 1
  68   33   69 1
  69   33   70 1
  70   34   35 1
  71   34   71 1
  72   34   72 1
  73   35   36 1
  74   35   73 1
  75   35   74 1
  76   36   37 1
  77   36   38 1
  78   37   75 1
  79   37   76 1
  80   38   77 1
  81   38   78 1
  82   38   79 1

#	End of record

