#	Name: ASD03080011
#	Creating user name:	WinNT
#	Creation time:	15. 06. 2019 20:26

#	Modifying user name:	WinNT
#	Modification time:	15. 06. 2019 20:26

#	Program:	/corina/corina34_cracker 3.40 0067  02.08.2006

@<TRIPOS>MOLECULE
ASD03080011
  26   28    0    0    0
SMALL
NO_CHARGES


@<TRIPOS>ATOM
   1 O1            -0.0144     1.2085     0.0087 O.3     
   2 N2             0.0021    -0.0041     0.0020 N.2     
   3 C3             1.2349    -0.4422    -0.0121 C.2     
   4 N4             2.0457     0.6364    -0.0141 N.2     
   5 C5             1.2411     1.6828    -0.0008 C.2     
   6 C6             3.0155    -2.1955    -0.0376 C.ar    
   7 C7             1.6626    -1.8636    -0.0234 C.ar    
   8 C8             0.7149    -2.8901    -0.0194 C.ar    
   9 C9             1.1650    -4.1995    -0.0299 C.ar    
  10 C10            2.5253    -4.4469    -0.0438 C.ar    
  11 N11            3.3965    -3.4564    -0.0472 N.ar    
  12 C12            1.6453     3.1041     0.0023 C.ar    
  13 C13            0.6751     4.1082     0.0167 C.ar    
  14 C14            1.0587     5.4344     0.0199 C.ar    
  15 C15            2.4062     5.7690     0.0085 C.ar    
  16 C16            3.3713     4.7752    -0.0063 C.ar    
  17 C17            2.9983     3.4473    -0.0034 C.ar    
  18 F18            2.7774     7.0680     0.0112 F       
  19 F19            0.1218     6.4077     0.0338 F       
  20 H20            3.7587    -1.4119    -0.0453 H       
  21 H21           -0.3419    -2.6679    -0.0081 H       
  22 H22            0.4612    -5.0187    -0.0269 H       
  23 H23            2.8800    -5.4670    -0.0520 H       
  24 H24           -0.3730     3.8480     0.0249 H       
  25 H25            4.4181     5.0408    -0.0155 H       
  26 H26            3.7522     2.6740    -0.0100 H       
@<TRIPOS>BOND
   1    1    2 1
   2    1    5 1
   3    2    3 2
   4    3    4 1
   5    3    7 1
   6    4    5 2
   7    5   12 1
   8    6    7 ar
   9    6   11 ar
  10    6   20 1
  11    7    8 ar
  12    8    9 ar
  13    8   21 1
  14    9   10 ar
  15    9   22 1
  16   10   11 ar
  17   10   23 1
  18   12   13 ar
  19   12   17 ar
  20   13   14 ar
  21   13   24 1
  22   14   15 ar
  23   14   19 1
  24   15   16 ar
  25   15   18 1
  26   16   17 ar
  27   16   25 1
  28   17   26 1

#	End of record

