#	Name: ASD01000096
#	Creating user name:	WinNT
#	Creation time:	15. 06. 2019 18:54

#	Modifying user name:	WinNT
#	Modification time:	15. 06. 2019 18:54

#	Program:	/corina/corina34_cracker 3.40 0067  02.08.2006

@<TRIPOS>MOLECULE
ASD01000096
  48   50    0    0    0
SMALL
NO_CHARGES


@<TRIPOS>ATOM
   1 C1             0.1086     1.3858     0.0670 C.3     
   2 C2             0.2148    -0.1221     0.0314 C.2     
   3 N3             1.4544    -0.4646    -0.0427 N.2     
   4 N4             2.3413     0.6098    -0.0696 N.am    
   5 C5             1.5728     1.8629    -0.0031 C.3     
   6 C6             3.6838     0.5164    -0.1437 C.2     
   7 C7             4.3491    -0.8348    -0.0926 C.3     
   8 O8             4.3565     1.5201    -0.2515 O.2     
   9 C9             1.9362     2.6428     1.2342 C.ar    
  10 C10            1.8053     2.7045    -1.2595 C.3     
  11 C11            1.8484     4.0225     1.2315 C.ar    
  12 C12            2.1816     4.7411     2.3650 C.ar    
  13 C13            2.6031     4.0816     3.5031 C.ar    
  14 C14            2.6916     2.6969     3.5085 C.ar    
  15 C15            2.3514     1.9781     2.3720 C.ar    
  16 C16           -0.9249    -1.0565     0.0752 C.ar    
  17 C17           -0.7036    -2.4370     0.0358 C.ar    
  18 C18           -1.7767    -3.3069     0.0772 C.ar    
  19 C19           -3.0667    -2.8153     0.1574 C.ar    
  20 C20           -3.2935    -1.4484     0.1964 C.ar    
  21 C21           -2.2304    -0.5674     0.1620 C.ar    
  22 F22           -4.5572    -0.9770     0.2743 F       
  23 F23            0.5561    -2.9189    -0.0430 F       
  24 C24            1.5768     2.7502    -3.7470 C.3     
  25 N25            1.2673     1.9479    -4.9380 N.3     
  26 O26            3.1064     2.0457     4.6269 O.3     
  27 C27            1.4829     1.8689    -2.4999 C.3     
  28 F28            2.3978     0.8156    -2.6033 F       
  29 H29           -0.4538     1.7499    -0.7928 H       
  30 H30           -0.3566     1.7145     0.9964 H       
  31 H31            3.9964    -1.4452    -0.9240 H       
  32 H32            5.4295    -0.7108    -0.1656 H       
  33 H33            4.1025    -1.3258     0.8488 H       
  34 H34            1.1586     3.5816    -1.2341 H       
  35 H35            2.8473     3.0223    -1.2962 H       
  36 H36            1.5194     4.5400     0.3425 H       
  37 H37            2.1126     5.8188     2.3603 H       
  38 H38            2.8639     4.6433     4.3879 H       
  39 H39            2.4194     0.9002     2.3737 H       
  40 H40           -1.6075    -4.3731     0.0465 H       
  41 H41           -3.9015    -3.4997     0.1895 H       
  42 H42           -2.4086     0.4974     0.1925 H       
  43 H43            2.5861     3.1528    -3.8324 H       
  44 H44            0.8640     3.5709    -3.6665 H       
  45 H45            1.3226     2.5079    -5.7756 H       
  46 H46            1.8737     1.1438    -5.0000 H       
  47 H47            2.3902     1.8049     5.2303 H       
  48 H48            0.4736     1.4664    -2.4146 H       
@<TRIPOS>BOND
   1    1    2 1
   2    1    5 1
   3    1   29 1
   4    1   30 1
   5    2    3 2
   6    2   16 1
   7    3    4 1
   8    4    5 1
   9    4    6 am
  10    5    9 1
  11    5   10 1
  12    6    7 1
  13    6    8 2
  14    7   31 1
  15    7   32 1
  16    7   33 1
  17    9   11 ar
  18    9   15 ar
  19   10   27 1
  20   10   34 1
  21   10   35 1
  22   11   12 ar
  23   11   36 1
  24   12   13 ar
  25   12   37 1
  26   13   14 ar
  27   13   38 1
  28   14   15 ar
  29   14   26 1
  30   15   39 1
  31   16   17 ar
  32   16   21 ar
  33   17   18 ar
  34   17   23 1
  35   18   19 ar
  36   18   40 1
  37   19   20 ar
  38   19   41 1
  39   20   21 ar
  40   20   22 1
  41   21   42 1
  42   24   25 1
  43   24   27 1
  44   24   43 1
  45   24   44 1
  46   25   45 1
  47   25   46 1
  48   26   47 1
  49   27   28 1
  50   27   48 1

#	End of record

