#	Name: ASD05213012
#	Creating user name:	WinNT
#	Creation time:	15. 06. 2019 20:57

#	Modifying user name:	WinNT
#	Modification time:	15. 06. 2019 20:57

#	Program:	/corina/corina34_cracker 3.40 0067  02.08.2006

@<TRIPOS>MOLECULE
ASD05213012
  34   37    0    0    0
SMALL
NO_CHARGES


@<TRIPOS>ATOM
   1 C1            -0.0140     1.3345    -0.0309 C.2     
   2 N2             0.0070    -0.0056    -0.0739 N.2     
   3 N3            -1.1993    -0.4512    -0.0878 N.2     
   4 C4            -2.0619     0.5732    -0.0547 C.2     
   5 N5            -1.3387     1.7179    -0.0121 N.pl3   
   6 S6             1.3466     2.3732     0.0019 S.3     
   7 C7             2.4156     1.0425     0.1338 C.2     
   8 S8             4.1725     1.1379     0.0783 S.3     
   9 C9             4.2845    -0.5573     0.2783 C.2     
  10 C10            3.0163    -1.0794     0.3725 C.2     
  11 N11            2.0534    -0.2118     0.2981 N.2     
  12 C12           -1.8366     3.0289     0.0329 C.ar    
  13 C13           -1.6116     3.8189     1.1516 C.ar    
  14 C14           -2.1024     5.1095     1.1971 C.ar    
  15 C15           -2.8217     5.6195     0.1264 C.ar    
  16 C16           -3.0461     4.8311    -0.9969 C.ar    
  17 C17           -2.5495     3.5381    -1.0435 C.ar    
  18 O18           -3.3049     6.8908     0.1924 O.3     
  19 C19           -3.6972     7.4953    -1.0447 C.3     
  20 C20           -4.5419     6.4818    -1.8286 C.3     
  21 O21           -3.7430     5.3166    -2.0606 O.3     
  22 O22           -3.4035     0.4816    -0.0571 O.3     
  23 N23            5.5425    -1.3355     0.3398 N.pl3   
  24 O24            5.5013    -2.6425     0.4966 O.2     
  25 O25            6.7028    -0.7208     0.2377 O.2     
  26 H26            2.8340    -2.1359     0.5030 H       
  27 H27           -1.0527     3.4244     1.9873 H       
  28 H28           -1.9260     5.7226     2.0685 H       
  29 H29           -2.7246     2.9236    -1.9143 H       
  30 H30           -4.2874     8.3898    -0.8458 H       
  31 H31           -2.8112     7.7597    -1.6218 H       
  32 H32           -5.4248     6.2126    -1.2489 H       
  33 H33           -4.8453     6.9152    -2.7816 H       
  34 H34           -3.8412     0.4244     0.8032 H       
@<TRIPOS>BOND
   1    1    2 2
   2    1    6 1
   3    1    5 1
   4    2    3 1
   5    3    4 2
   6    4    5 1
   7    4   22 1
   8    5   12 1
   9    6    7 1
  10    7    8 1
  11    7   11 2
  12    8    9 1
  13    9   10 2
  14    9   23 1
  15   10   11 1
  16   10   26 1
  17   12   13 ar
  18   12   17 ar
  19   13   14 ar
  20   13   27 1
  21   14   15 ar
  22   14   28 1
  23   15   16 ar
  24   15   18 1
  25   16   17 ar
  26   16   21 1
  27   17   29 1
  28   18   19 1
  29   19   20 1
  30   19   30 1
  31   19   31 1
  32   20   21 1
  33   20   32 1
  34   20   33 1
  35   22   34 1
  36   23   24 2
  37   23   25 2

#	End of record

