#	Name: ASD01885369
#	Creating user name:	WinNT
#	Creation time:	15. 06. 2019 19:49

#	Modifying user name:	WinNT
#	Modification time:	15. 06. 2019 19:49

#	Program:	/corina/corina34_cracker 3.40 0067  02.08.2006

@<TRIPOS>MOLECULE
ASD01885369
  56   59    0    0    0
SMALL
NO_CHARGES


@<TRIPOS>ATOM
   1 C1            -0.0164     1.3565     0.0095 C.ar    
   2 C2             0.0021    -0.0041     0.0020 C.ar    
   3 C3             1.2052    -0.7063    -0.0132 C.ar    
   4 C4             2.3986    -0.0481    -0.0211 C.ar    
   5 C5             2.4181     1.3524    -0.0137 C.ar    
   6 C6             1.1963     2.0715     0.0018 C.ar    
   7 C7             3.6402     2.0714    -0.0215 C.ar    
   8 C8             3.5783     3.4584    -0.0135 C.ar    
   9 C9             2.3315     4.0925     0.0018 C.ar    
  10 N10            1.2047     3.4051     0.0084 N.ar    
  11 C11            4.9416     1.3652    -0.0371 C.2     
  12 C12            2.2743     5.5743     0.0102 C.2     
  13 O13            3.3022     6.2220     0.0039 O.2     
  14 N14            1.0820     6.2025     0.0249 N.am    
  15 C15           -1.2996    -0.7634     0.0109 C.3     
  16 N16           -1.7363    -1.0027    -1.3712 N.3     
  17 C17           -0.8091    -1.9062    -2.0677 C.3     
  18 C18           -1.3325    -2.1753    -3.4811 C.3     
  19 O19           -1.4955    -0.9317    -4.1684 O.3     
  20 C20           -2.3926    -0.0277    -3.5179 C.3     
  21 C21           -1.8800     0.2631    -2.1049 C.3     
  22 C22            5.3341     0.3202     0.8248 C.2     
  23 N23            6.5465    -0.0398     0.4987 N.2     
  24 N24            6.9741     0.7520    -0.5737 N.pl3   
  25 C25            5.9803     1.6027    -0.8935 C.2     
  26 C26            8.2772     0.6663    -1.2376 C.3     
  27 C27           -0.3316    -3.0503    -4.2385 C.3     
  28 F28           -0.1690    -4.2645    -3.5629 F       
  29 F29           -0.8106    -3.2957    -5.5299 F       
  30 F30            0.8997    -2.3907    -4.3153 F       
  31 C31           -2.4681     1.2775    -4.3127 C.3     
  32 C32           -3.7841    -0.6587    -3.4368 C.3     
  33 H33           -0.9577     1.8859     0.0168 H       
  34 H34            1.1920    -1.7862    -0.0186 H       
  35 H35            3.3247    -0.6037    -0.0325 H       
  36 H36            4.4860     4.0435    -0.0186 H       
  37 H37            0.2613     5.6854     0.0299 H       
  38 H38            1.0445     7.1718     0.0304 H       
  39 H39           -1.1600    -1.7179     0.5182 H       
  40 H40           -2.0567    -0.1805     0.5354 H       
  41 H41            0.1757    -1.4426    -2.1264 H       
  42 H42           -0.7375    -2.8464    -1.5210 H       
  43 H43           -2.2929    -2.6873    -3.4222 H       
  44 H44           -2.5902     0.9064    -1.5853 H       
  45 H45           -0.9124     0.7614    -2.1642 H       
  46 H46            4.7367    -0.1074     1.6164 H       
  47 H47            6.0011     2.3405    -1.6819 H       
  48 H48            8.2186    -0.0431    -2.0630 H       
  49 H49            8.5548     1.6481    -1.6213 H       
  50 H50            9.0279     0.3303    -0.5223 H       
  51 H51           -2.8295     1.0692    -5.3198 H       
  52 H52           -3.1520     1.9661    -3.8165 H       
  53 H53           -1.4767     1.7270    -4.3681 H       
  54 H54           -3.7294    -1.5874    -2.8688 H       
  55 H55           -4.4674     0.0308    -2.9409 H       
  56 H56           -4.1469    -0.8691    -4.4429 H       
@<TRIPOS>BOND
   1    1    2 ar
   2    1    6 ar
   3    1   33 1
   4    2    3 ar
   5    2   15 1
   6    3    4 ar
   7    3   34 1
   8    4    5 ar
   9    4   35 1
  10    5    7 ar
  11    5    6 ar
  12    6   10 ar
  13    7    8 ar
  14    7   11 1
  15    8    9 ar
  16    8   36 1
  17    9   10 ar
  18    9   12 1
  19   11   22 1
  20   11   25 2
  21   12   13 2
  22   12   14 am
  23   14   37 1
  24   14   38 1
  25   15   16 1
  26   15   39 1
  27   15   40 1
  28   16   17 1
  29   16   21 1
  30   17   18 1
  31   17   41 1
  32   17   42 1
  33   18   19 1
  34   18   27 1
  35   18   43 1
  36   19   20 1
  37   20   21 1
  38   20   31 1
  39   20   32 1
  40   21   44 1
  41   21   45 1
  42   22   23 2
  43   22   46 1
  44   23   24 1
  45   24   25 1
  46   24   26 1
  47   25   47 1
  48   26   48 1
  49   26   49 1
  50   26   50 1
  51   27   28 1
  52   27   29 1
  53   27   30 1
  54   31   51 1
  55   31   52 1
  56   31   53 1
  57   32   54 1
  58   32   55 1
  59   32   56 1

#	End of record

