#	Name: ASD04560086
#	Creating user name:	WinNT
#	Creation time:	15. 06. 2019 20:49

#	Modifying user name:	WinNT
#	Modification time:	15. 06. 2019 20:49

#	Program:	/corina/corina34_cracker 3.40 0067  02.08.2006

@<TRIPOS>MOLECULE
ASD04560086
  32   33    0    0    0
SMALL
NO_CHARGES


@<TRIPOS>ATOM
   1 C1            -0.0173     1.3666     0.0244 C.ar    
   2 C2             0.0010    -0.0041     0.0240 C.ar    
   3 C3             1.2157    -0.6859     0.0136 C.ar    
   4 C4             2.4151     0.0225     0.0034 C.ar    
   5 C5             2.4031     1.3933     0.0042 C.ar    
   6 C6             1.1852     2.0805     0.0143 C.ar    
   7 C7             1.1690     3.5549     0.0146 C.2     
   8 O8             2.2154     4.1746     0.0062 O.2     
   9 N9            -0.0055     4.2159     0.0243 N.am    
  10 C10           -0.0226     5.6108     0.1376 C.ar    
  11 C11           -0.9920     6.3506    -0.5268 C.ar    
  12 C12            0.9074     7.6331     1.0301 C.ar    
  13 C13            0.9263     6.2566     0.9193 C.ar    
  14 S14            1.2351    -2.4478     0.0137 S.3     
  15 C15           -1.0073     7.7269    -0.4133 C.ar    
  16 C16           -0.0567     8.3693     0.3621 C.ar    
  17 F17           -0.0734     9.7157     0.4718 F       
  18 C18            3.0069    -2.8364    -0.0017 C.3     
  19 N19            3.5721    -2.5916     1.3276 N.pl3   
  20 O20            2.8581    -2.1878     2.2280 O.2     
  21 O21            4.7560    -2.7918     1.5323 O.2     
  22 H22           -0.9594     1.8947     0.0280 H       
  23 H23           -0.9274    -0.5560     0.0322 H       
  24 H24            3.3553    -0.5088    -0.0047 H       
  25 H25            3.3333     1.9420    -0.0029 H       
  26 H26           -0.8390     3.7249    -0.0472 H       
  27 H27           -1.7331     5.8500    -1.1322 H       
  28 H28            1.6452     8.1357     1.6379 H       
  29 H29            1.6784     5.6828     1.4404 H       
  30 H30           -1.7610     8.3026    -0.9299 H       
  31 H31            3.1468    -3.8839    -0.2687 H       
  32 H32            3.5111    -2.2046    -0.7329 H       
@<TRIPOS>BOND
   1    1    2 ar
   2    1    6 ar
   3    1   22 1
   4    2    3 ar
   5    2   23 1
   6    3    4 ar
   7    3   14 1
   8    4    5 ar
   9    4   24 1
  10    5    6 ar
  11    5   25 1
  12    6    7 1
  13    7    8 2
  14    7    9 am
  15    9   10 1
  16    9   26 1
  17   10   11 ar
  18   10   13 ar
  19   11   15 ar
  20   11   27 1
  21   12   13 ar
  22   12   16 ar
  23   12   28 1
  24   13   29 1
  25   14   18 1
  26   15   16 ar
  27   15   30 1
  28   16   17 1
  29   18   19 1
  30   18   31 1
  31   18   32 1
  32   19   20 2
  33   19   21 2

#	End of record

