#	Name: ASD02038110
#	Creating user name:	WinNT
#	Creation time:	15. 06. 2019 20:16

#	Modifying user name:	WinNT
#	Modification time:	15. 06. 2019 20:16

#	Program:	/corina/corina34_cracker 3.40 0067  02.08.2006

@<TRIPOS>MOLECULE
ASD02038110
  54   56    0    0    0
SMALL
NO_CHARGES


@<TRIPOS>ATOM
   1 C1            -0.1688     1.1574     0.1083 C.ar    
   2 C2            -0.0900    -0.2188    -0.0055 C.ar    
   3 C3             0.9849     1.9139     0.1991 C.ar    
   4 C4             2.2207     1.2971     0.1760 C.ar    
   5 C5             2.3034    -0.0846     0.0618 C.ar    
   6 C6             1.1420    -0.8418    -0.0284 C.ar    
   7 N7             3.5513    -0.7114     0.0376 N.3     
   8 C8             6.8920    -3.1213     0.9752 C.3     
   9 C9             6.7045    -4.6354     1.0909 C.3     
  10 C10            8.0601    -5.3297     0.9459 C.3     
  11 O11            6.1424    -4.9496     2.3666 O.3     
  12 O12            7.8713    -6.7461     0.9373 O.3     
  13 C13            8.9850    -7.5166     0.8143 C.ar    
  14 C14            8.8737    -8.8990     0.7988 C.ar    
  15 C15           10.0050    -9.6817     0.6740 C.ar    
  16 C16           11.2523    -9.0852     0.5637 C.ar    
  17 C17           11.3635    -7.7028     0.5783 C.ar    
  18 C18           10.2318    -6.9200     0.6988 C.ar    
  19 C19           -1.5151     1.8343     0.1270 C.3     
  20 O20           12.3660    -9.8557     0.4417 O.3     
  21 C21            3.4064    -2.1684    -0.0881 C.3     
  22 C22            4.7925    -2.8092    -0.1909 C.3     
  23 N23            5.5795    -2.4620     1.0006 N.3     
  24 C24            5.7243    -1.0050     1.1263 C.3     
  25 C25            4.3382    -0.3642     1.2291 C.3     
  26 C26            0.8942     3.4130     0.3230 C.3     
  27 H27           -0.9932    -0.8067    -0.0763 H       
  28 H28            3.1215     1.8887     0.2463 H       
  29 H29            1.2028    -1.9164    -0.1173 H       
  30 H30            7.4939    -2.7648     1.8111 H       
  31 H31            7.3975    -2.8884     0.0380 H       
  32 H32            6.0339    -4.9796     0.3036 H       
  33 H33            8.5290    -5.0199     0.0119 H       
  34 H34            8.7011    -5.0537     1.7832 H       
  35 H35            6.6870    -4.6715     3.1156 H       
  36 H36            7.9025    -9.3635     0.8847 H       
  37 H37            9.9183   -10.7582     0.6626 H       
  38 H38           12.3348    -7.2383     0.4925 H       
  39 H39           10.3185    -5.8436     0.7101 H       
  40 H40           -1.8688     1.9112     1.1552 H       
  41 H41           -1.4259     2.8323    -0.3021 H       
  42 H42           -2.2242     1.2491    -0.4584 H       
  43 H43           12.6029   -10.0627    -0.4727 H       
  44 H44            2.8891    -2.5594     0.7880 H       
  45 H45            2.8311    -2.4007    -0.9843 H       
  46 H46            4.6886    -3.8924    -0.2552 H       
  47 H47            5.2993    -2.4388    -1.0821 H       
  48 H48            6.2997    -0.7728     2.0225 H       
  49 H49            6.2416    -0.6141     0.2502 H       
  50 H50            4.4422     0.7189     1.2933 H       
  51 H51            3.8315    -0.7347     2.1203 H       
  52 H52            0.8481     3.6884     1.3766 H       
  53 H53            1.7725     3.8692    -0.1337 H       
  54 H54           -0.0037     3.7658    -0.1843 H       
@<TRIPOS>BOND
   1    1    2 ar
   2    1    3 ar
   3    1   19 1
   4    2    6 ar
   5    2   27 1
   6    3    4 ar
   7    3   26 1
   8    4    5 ar
   9    4   28 1
  10    5    6 ar
  11    5    7 1
  12    6   29 1
  13    7   21 1
  14    7   25 1
  15    8    9 1
  16    8   23 1
  17    8   30 1
  18    8   31 1
  19    9   11 1
  20    9   10 1
  21    9   32 1
  22   10   12 1
  23   10   33 1
  24   10   34 1
  25   11   35 1
  26   12   13 1
  27   13   14 ar
  28   13   18 ar
  29   14   15 ar
  30   14   36 1
  31   15   16 ar
  32   15   37 1
  33   16   17 ar
  34   16   20 1
  35   17   18 ar
  36   17   38 1
  37   18   39 1
  38   19   40 1
  39   19   41 1
  40   19   42 1
  41   20   43 1
  42   21   22 1
  43   21   44 1
  44   21   45 1
  45   22   23 1
  46   22   46 1
  47   22   47 1
  48   23   24 1
  49   24   25 1
  50   24   48 1
  51   24   49 1
  52   25   50 1
  53   25   51 1
  54   26   52 1
  55   26   53 1
  56   26   54 1

#	End of record

