#	Name: ASD01916419
#	Creating user name:	WinNT
#	Creation time:	15. 06. 2019 20:07

#	Modifying user name:	WinNT
#	Modification time:	15. 06. 2019 20:07

#	Program:	/corina/corina34_cracker 3.40 0067  02.08.2006

@<TRIPOS>MOLECULE
ASD01916419
  36   38    0    0    0
SMALL
NO_CHARGES


@<TRIPOS>ATOM
   1 C1            -0.0168     1.3912     0.0097 C.ar    
   2 C2             0.0021    -0.0041     0.0020 C.ar    
   3 C3             1.2204    -0.6594    -0.0131 C.ar    
   4 C4             2.3820     0.1007    -0.0201 C.ar    
   5 C5             2.2905     1.4803    -0.0118 C.ar    
   6 N6             1.1180     2.0808     0.0026 N.ar    
   7 C7            -1.2697     2.0847     0.0194 C.1     
   8 C8            -2.2967     2.6533     0.0273 C.1     
   9 C9            -3.5846     3.3662     0.0372 C.3     
  10 C10           -3.3321     4.8752     0.0443 C.3     
  11 N11           -4.6138     5.5848     0.0541 N.pl3   
  12 N12           -5.6525     5.4184    -0.8707 N.2     
  13 C13           -6.6352     6.2257    -0.5318 C.2     
  14 C14           -6.2404     6.9279     0.6236 C.2     
  15 C15           -5.0012     6.5085     0.9598 C.2     
  16 C16           -7.9302     6.3712    -1.2421 C.ar    
  17 C17           -8.1928     5.6110    -2.3798 C.ar    
  18 C18           -9.3987     5.7503    -3.0366 C.ar    
  19 C19          -10.3457     6.6425    -2.5672 C.ar    
  20 C20          -10.0903     7.3996    -1.4382 C.ar    
  21 C21           -8.8900     7.2641    -0.7704 C.ar    
  22 H22           -0.9212    -0.5644     0.0082 H       
  23 H23            1.2668    -1.7384    -0.0190 H       
  24 H24            3.3484    -0.3812    -0.0315 H       
  25 H25            3.1928     2.0739    -0.0172 H       
  26 H26           -4.1555     3.0975    -0.8515 H       
  27 H27           -4.1471     3.0878     0.9284 H       
  28 H28           -2.7611     5.1440     0.9330 H       
  29 H29           -2.7695     5.1536    -0.8469 H       
  30 H30           -6.8261     7.6673     1.1496 H       
  31 H31           -4.4212     6.8530     1.8033 H       
  32 H32           -7.4539     4.9144    -2.7474 H       
  33 H33           -9.6031     5.1618    -3.9188 H       
  34 H34          -11.2879     6.7486    -3.0843 H       
  35 H35          -10.8332     8.0948    -1.0759 H       
  36 H36           -8.6935     7.8523     0.1139 H       
@<TRIPOS>BOND
   1    1    2 ar
   2    1    6 ar
   3    1    7 1
   4    2    3 ar
   5    2   22 1
   6    3    4 ar
   7    3   23 1
   8    4    5 ar
   9    4   24 1
  10    5    6 ar
  11    5   25 1
  12    7    8 3
  13    8    9 1
  14    9   10 1
  15    9   26 1
  16    9   27 1
  17   10   11 1
  18   10   28 1
  19   10   29 1
  20   11   12 1
  21   11   15 1
  22   12   13 2
  23   13   14 1
  24   13   16 1
  25   14   15 2
  26   14   30 1
  27   15   31 1
  28   16   17 ar
  29   16   21 ar
  30   17   18 ar
  31   17   32 1
  32   18   19 ar
  33   18   33 1
  34   19   20 ar
  35   19   34 1
  36   20   21 ar
  37   20   35 1
  38   21   36 1

#	End of record

