#	Name: ASD01010001
#	Creating user name:	WinNT
#	Creation time:	15. 06. 2019 18:56

#	Modifying user name:	WinNT
#	Modification time:	15. 06. 2019 18:56

#	Program:	/corina/corina34_cracker 3.40 0067  02.08.2006

@<TRIPOS>MOLECULE
ASD01010001
  86   89    0    0    0
SMALL
NO_CHARGES


@<TRIPOS>ATOM
   1 N1             0.1272     1.4196    -0.2482 N.am    
   2 C2             0.0802    -0.0345    -0.1300 C.3     
   3 C3            -0.4019    -0.3922     1.2596 C.2     
   4 N4            -0.5161    -1.7018     1.6008 N.am    
   5 C5            -0.8682    -2.0371     2.9943 C.3     
   6 C6             0.1447    -1.4228     3.9230 C.2     
   7 N7             1.0399    -2.2063     4.5560 N.am    
   8 C8             2.2771    -1.7478     5.1931 C.3     
   9 C9             1.2472     2.1488    -0.2878 C.2     
  10 C10            2.6323     1.5784    -0.3575 C.3     
  11 N11            2.8589     0.6306     0.7569 N.am    
  12 C12            4.0376     0.8247     1.4317 C.2     
  13 C13            4.4512    -0.1578     2.4935 C.3     
  14 O14            1.1328     3.3708    -0.2651 O.2     
  15 O15           -0.6745     0.5072     2.0263 O.2     
  16 O16            0.1581    -0.2255     4.1216 O.2     
  17 N17            3.3621    -0.3207     3.4785 N.am    
  18 C18            3.3340    -1.5088     4.1474 C.2     
  19 C19            2.7416    -2.8419     6.1650 C.3     
  20 C20            1.8388    -4.0570     5.8990 C.3     
  21 C21            0.9226    -3.6567     4.7344 C.3     
  22 O22            4.1483    -2.3729     3.8984 O.2     
  23 O23            4.7468     1.7779     1.1788 O.2     
  24 C24            2.8657     0.8924    -1.7045 C.3     
  25 C25            4.3215     0.4307    -1.7961 C.3     
  26 C26            4.5241    -0.3640    -3.0878 C.3     
  27 C27            5.2445     1.6509    -1.7980 C.3     
  28 C28            5.7050     0.3654     3.2012 C.3     
  29 C29            5.3615     1.6437     3.9686 C.3     
  30 C30            6.2185    -0.6938     4.1786 C.3     
  31 C31           -2.2734    -1.5468     3.3347 C.3     
  32 C32           -3.2816    -2.2903     2.4971 C.2     
  33 O33           -4.5904    -2.0227     2.6274 O.3     
  34 O34           -2.9117    -3.1274     1.7081 O.2     
  35 C35           -0.9069    -0.5924    -1.1606 C.3     
  36 C36           -0.3909    -0.3188    -2.5498 C.2     
  37 C37            0.5596    -1.1397    -3.3037 C.ar    
  38 C38            0.7386    -0.4915    -4.5392 C.ar    
  39 N39           -0.0498     0.6372    -4.5237 N.pl3   
  40 C40           -0.7195     0.7205    -3.3334 C.2     
  41 C41            1.2437    -2.3268    -3.0342 C.ar    
  42 C42            2.0846    -2.8532    -3.9736 C.ar    
  43 C43            2.2650    -2.2171    -5.1943 C.ar    
  44 C44            1.5995    -1.0456    -5.4812 C.ar    
  45 H45           -0.7310     1.8995    -0.3073 H       
  46 H46            1.0572    -0.4748    -0.2930 H       
  47 H47           -0.3670    -2.4098     0.9436 H       
  48 H48           -0.8378    -3.1282     3.1074 H       
  49 H49            2.0886    -0.8267     5.7450 H       
  50 H50            3.3521     2.4069    -0.2680 H       
  51 H51            2.2367    -0.0714     1.0019 H       
  52 H52            4.6732    -1.1207     2.0318 H       
  53 H53            2.7073     0.3766     3.6427 H       
  54 H54            3.7825    -3.1006     5.9776 H       
  55 H55            2.6209    -2.5060     7.1954 H       
  56 H56            2.4419    -4.9202     5.6230 H       
  57 H57            1.2438    -4.2823     6.7835 H       
  58 H58           -0.1086    -3.9156     4.9764 H       
  59 H59            1.2320    -4.1713     3.8263 H       
  60 H60            2.2048     0.0302    -1.7925 H       
  61 H61            2.6559     1.5949    -2.5111 H       
  62 H62            4.5567    -0.2015    -0.9399 H       
  63 H63            4.2889     0.2682    -3.9440 H       
  64 H64            5.5613    -0.6929    -3.1531 H       
  65 H65            3.8666    -1.2333    -3.0865 H       
  66 H66            5.1001     2.2171    -0.8778 H       
  67 H67            6.2816     1.3220    -1.8632 H       
  68 H68            5.0092     2.2831    -2.6542 H       
  69 H69            6.4761     0.5817     2.4618 H       
  70 H70            6.2272     1.9627     4.5491 H       
  71 H71            5.0878     2.4284     3.2633 H       
  72 H72            4.5249     1.4507     4.6400 H       
  73 H73            6.4632    -1.6045     3.6319 H       
  74 H74            7.1106    -0.3215     4.6822 H       
  75 H75            5.4474    -0.9100     4.9181 H       
  76 H76           -2.4750    -1.7266     4.3907 H       
  77 H77           -2.3457    -0.4791     3.1277 H       
  78 H78           -5.1990    -2.5252     2.0687 H       
  79 H79           -1.0125    -1.6678    -1.0176 H       
  80 H80           -1.8767    -0.1118    -1.0321 H       
  81 H81           -0.1225     1.2762    -5.2499 H       
  82 H82           -1.4049     1.5096    -3.0615 H       
  83 H83            1.1088    -2.8268    -2.0865 H       
  84 H84            2.6135    -3.7714    -3.7647 H       
  85 H85            2.9334    -2.6453    -5.9266 H       
  86 H86            1.7464    -0.5585    -6.4339 H       
@<TRIPOS>BOND
   1    1    2 1
   2    1    9 am
   3    1   45 1
   4    2    3 1
   5    2   35 1
   6    2   46 1
   7    3    4 am
   8    3   15 2
   9    4    5 1
  10    4   47 1
  11    5    6 1
  12    5   31 1
  13    5   48 1
  14    6    7 am
  15    6   16 2
  16    7    8 1
  17    7   21 1
  18    8   19 1
  19    8   18 1
  20    8   49 1
  21    9   10 1
  22    9   14 2
  23   10   11 1
  24   10   24 1
  25   10   50 1
  26   11   12 am
  27   11   51 1
  28   12   13 1
  29   12   23 2
  30   13   17 1
  31   13   28 1
  32   13   52 1
  33   17   18 am
  34   17   53 1
  35   18   22 2
  36   19   20 1
  37   19   54 1
  38   19   55 1
  39   20   21 1
  40   20   56 1
  41   20   57 1
  42   21   58 1
  43   21   59 1
  44   24   25 1
  45   24   60 1
  46   24   61 1
  47   25   26 1
  48   25   27 1
  49   25   62 1
  50   26   63 1
  51   26   64 1
  52   26   65 1
  53   27   66 1
  54   27   67 1
  55   27   68 1
  56   28   29 1
  57   28   30 1
  58   28   69 1
  59   29   70 1
  60   29   71 1
  61   29   72 1
  62   30   73 1
  63   30   74 1
  64   30   75 1
  65   31   32 1
  66   31   76 1
  67   31   77 1
  68   32   33 1
  69   32   34 2
  70   33   78 1
  71   35   36 1
  72   35   79 1
  73   35   80 1
  74   36   37 1
  75   36   40 2
  76   37   38 ar
  77   37   41 ar
  78   38   39 1
  79   38   44 ar
  80   39   40 1
  81   39   81 1
  82   40   82 1
  83   41   42 ar
  84   41   83 1
  85   42   43 ar
  86   42   84 1
  87   43   44 ar
  88   43   85 1
  89   44   86 1

#	End of record

