#	Name: ASD01230076
#	Creating user name:	WinNT
#	Creation time:	15. 06. 2019 19:11

#	Modifying user name:	WinNT
#	Modification time:	15. 06. 2019 19:11

#	Program:	/corina/corina34_cracker 3.40 0067  02.08.2006

@<TRIPOS>MOLECULE
ASD01230076
  45   48    0    0    0
SMALL
NO_CHARGES


@<TRIPOS>ATOM
   1 C1            -0.0169     1.3939     0.0097 C.ar    
   2 C2             0.0021    -0.0041     0.0020 C.ar    
   3 C3            -1.2649    -0.7750     0.0095 C.ar    
   4 N4            -2.4375    -0.1470     0.0236 N.ar    
   5 C5            -3.5700    -0.8333     0.0303 C.ar    
   6 N6            -3.5813    -2.1591     0.0238 N.ar    
   7 C7            -2.4533    -2.8495     0.0098 C.ar    
   8 C8            -1.2453    -2.1728    -0.0040 C.ar    
   9 C9            -4.8600    -0.0993     0.0461 C.ar    
  10 C10           -6.0741    -0.7863     0.0536 C.ar    
  11 C11           -4.8897     1.2987     0.0597 C.ar    
  12 C12           -6.1088     1.9474     0.0741 C.ar    
  13 N13           -7.2387     1.2695     0.0757 N.ar    
  14 C14           -7.2602    -0.0574     0.0683 C.ar    
  15 C15           -8.5601    -0.7707     0.0700 C.ar    
  16 C16           -9.7629    -0.0539     0.0793 C.ar    
  17 C17          -10.9484    -0.7608     0.0806 C.ar    
  18 C18          -10.9099    -2.1529     0.0727 C.ar    
  19 N19           -9.7544    -2.8006     0.0640 N.ar    
  20 C20           -8.6016    -2.1621     0.0566 C.ar    
  21 C21            1.2306    -0.6612    -0.0132 C.ar    
  22 N22            2.3566     0.0225    -0.0203 N.ar    
  23 C23            2.3703     1.3414    -0.0134 C.ar    
  24 C24            1.1926     2.0667     0.0018 C.ar    
  25 N25          -12.0980    -2.8712     0.0744 N.pl3   
  26 C26            3.6897     2.0695    -0.0216 C.3     
  27 F27            4.7317     1.1451    -0.1510 F       
  28 F28            3.7226     2.9630    -1.0976 F       
  29 F29            3.8396     2.7765     1.1763 F       
  30 C30           -2.4825    -4.3562     0.0030 C.3     
  31 F31           -3.8063    -4.7965    -0.1014 F       
  32 F32           -1.7456    -4.8320    -1.0868 F       
  33 F33           -1.9228    -4.8388     1.1909 F       
  34 H34           -0.9515     1.9350     0.0171 H       
  35 H35           -0.3098    -2.7123    -0.0159 H       
  36 H36           -6.0936    -1.8661     0.0477 H       
  37 H37           -3.9699     1.8646     0.0592 H       
  38 H38           -6.1365     3.0270     0.0846 H       
  39 H39           -9.7631     1.0261     0.0857 H       
  40 H40          -11.8947    -0.2404     0.0880 H       
  41 H41           -7.6794    -2.7241     0.0497 H       
  42 H42            1.2600    -1.7408    -0.0190 H       
  43 H43            1.2165     3.1465     0.0073 H       
  44 H44          -12.9476    -2.4033     0.0810 H       
  45 H45          -12.0784    -3.8410     0.0689 H       
@<TRIPOS>BOND
   1    1    2 ar
   2    1   24 ar
   3    1   34 1
   4    2    3 1
   5    2   21 ar
   6    3    4 ar
   7    3    8 ar
   8    4    5 ar
   9    5    6 ar
  10    5    9 1
  11    6    7 ar
  12    7   30 1
  13    7    8 ar
  14    8   35 1
  15    9   10 ar
  16    9   11 ar
  17   10   14 ar
  18   10   36 1
  19   11   12 ar
  20   11   37 1
  21   12   13 ar
  22   12   38 1
  23   13   14 ar
  24   14   15 1
  25   15   16 ar
  26   15   20 ar
  27   16   17 ar
  28   16   39 1
  29   17   18 ar
  30   17   40 1
  31   18   19 ar
  32   18   25 1
  33   19   20 ar
  34   20   41 1
  35   21   22 ar
  36   21   42 1
  37   22   23 ar
  38   23   26 1
  39   23   24 ar
  40   24   43 1
  41   25   44 1
  42   25   45 1
  43   26   27 1
  44   26   28 1
  45   26   29 1
  46   30   31 1
  47   30   32 1
  48   30   33 1

#	End of record

