#	Name: ASD01815398
#	Creating user name:	WinNT
#	Creation time:	15. 06. 2019 19:33

#	Modifying user name:	WinNT
#	Modification time:	15. 06. 2019 19:33

#	Program:	/corina/corina34_cracker 3.40 0067  02.08.2006

@<TRIPOS>MOLECULE
ASD01815398
  43   46    0    0    0
SMALL
NO_CHARGES


@<TRIPOS>ATOM
   1 C1             0.1025     1.4776     0.3766 C.ar    
   2 C2             0.0835     0.0904     0.3687 C.ar    
   3 C3             1.2525    -0.6292     0.2318 C.ar    
   4 C4             2.4694     0.0390     0.0991 C.ar    
   5 C5             2.4838     1.4437     0.1071 C.ar    
   6 C6             1.2935     2.1574     0.2469 C.ar    
   7 N7             3.6452    -0.6678    -0.0381 N.pl3   
   8 C8             4.8379    -0.0736    -0.1677 C.2     
   9 C9             4.9787     1.2997    -0.1740 C.2     
  10 C10            3.7773     2.1382    -0.0341 C.2     
  11 O11            3.8483     3.3546    -0.0341 O.2     
  12 C12            6.3060     1.9141    -0.3182 C.2     
  13 O13            7.2916     1.2119    -0.4331 O.2     
  14 O14            6.4305     3.2564    -0.3229 O.3     
  15 H15            1.3055     3.2373     0.2526 H       
  16 F16            1.2186    -1.9798     0.2267 F       
  17 C17            3.5871    -2.1316    -0.0416 C.3     
  18 C18            3.4443    -2.6253    -1.4583 C.ar    
  19 C19            4.5638    -2.7705    -2.2657 C.ar    
  20 C20            2.1978    -2.9430    -1.9640 C.ar    
  21 N21            2.0598    -3.3760    -3.2011 N.ar    
  22 C22            3.1037    -3.5235    -4.0067 C.ar    
  23 C23            4.3898    -3.2266    -3.5606 C.ar    
  24 H24            5.2387    -3.3470    -4.2174 H       
  25 C25            2.9005    -4.0146    -5.3915 C.2     
  26 C26            3.9118    -4.3150    -6.3256 C.2     
  27 N27            3.3385    -4.7176    -7.4283 N.2     
  28 N28            1.9509    -4.6907    -7.2443 N.pl3   
  29 C29            1.6997    -4.2636    -5.9916 C.2     
  30 C30            0.9452    -5.0677    -8.2406 C.3     
  31 H31           -0.8214     2.0272     0.4805 H       
  32 H32           -0.8563    -0.4316     0.4712 H       
  33 H33            5.7194    -0.6892    -0.2703 H       
  34 H34            7.3236     3.6141    -0.4203 H       
  35 H35            4.5030    -2.5327     0.3923 H       
  36 H36            2.7312    -2.4627     0.5465 H       
  37 H37            5.5487    -2.5326    -1.8918 H       
  38 H38            1.3252    -2.8353    -1.3368 H       
  39 H39            4.9753    -4.2274    -6.1592 H       
  40 H40            0.7248    -4.1354    -5.5449 H       
  41 H41            0.7218    -6.1304    -8.1472 H       
  42 H42            0.0360    -4.4894    -8.0760 H       
  43 H43            1.3296    -4.8637    -9.2400 H       
@<TRIPOS>BOND
   1    1    2 ar
   2    1    6 ar
   3    1   31 1
   4    2    3 ar
   5    2   32 1
   6    3    4 ar
   7    3   16 1
   8    4    5 ar
   9    4    7 1
  10    5    6 ar
  11    5   10 1
  12    6   15 1
  13    7    8 1
  14    7   17 1
  15    8    9 2
  16    8   33 1
  17    9   10 1
  18    9   12 1
  19   10   11 2
  20   12   13 2
  21   12   14 1
  22   14   34 1
  23   17   18 1
  24   17   35 1
  25   17   36 1
  26   18   19 ar
  27   18   20 ar
  28   19   23 ar
  29   19   37 1
  30   20   21 ar
  31   20   38 1
  32   21   22 ar
  33   22   23 ar
  34   22   25 1
  35   23   24 1
  36   25   26 1
  37   25   29 2
  38   26   27 2
  39   26   39 1
  40   27   28 1
  41   28   29 1
  42   28   30 1
  43   29   40 1
  44   30   41 1
  45   30   42 1
  46   30   43 1

#	End of record

