#	Name: ASD01883568
#	Creating user name:	WinNT
#	Creation time:	15. 06. 2019 19:46

#	Modifying user name:	WinNT
#	Modification time:	15. 06. 2019 19:46

#	Program:	/corina/corina34_cracker 3.40 0067  02.08.2006

@<TRIPOS>MOLECULE
ASD01883568
  53   55    0    0    0
SMALL
NO_CHARGES


@<TRIPOS>ATOM
   1 C1            -0.0162     1.3453     0.0094 C.2     
   2 C2             0.0021    -0.0041     0.0020 C.2     
   3 N3             1.1772    -0.6879    -0.0124 N.am    
   4 C4             2.3585    -0.0433    -0.0198 C.2     
   5 C5             2.3962     1.3583    -0.0126 C.2     
   6 C6             1.2013     2.0642     0.0017 C.2     
   7 C7             1.1570    -2.1527    -0.0196 C.3     
   8 O8             3.4001    -0.6806    -0.0323 O.2     
   9 Cl9            3.9153     2.1985    -0.0214 Cl      
  10 C10            1.2014     3.5445     0.0091 C.ar    
  11 C11            0.6811     4.2491    -1.0777 C.ar    
  12 C12            0.6820     5.6265    -1.0681 C.ar    
  13 C13            1.2013     6.3153     0.0233 C.ar    
  14 C14            1.7209     5.6154     1.1075 C.ar    
  15 C15            1.7166     4.2380     1.1055 C.ar    
  16 C16            1.1364    -2.6554    -1.4645 C.3     
  17 N17            1.2015     7.7087     0.0303 N.pl3   
  18 C18            1.7480     8.4354     1.1790 C.3     
  19 C19            2.2070     9.8248     0.7321 C.3     
  20 C20            2.7778    10.5837     1.9317 C.3     
  21 C21            1.6983    10.7245     3.0068 C.3     
  22 C22            1.2393     9.3351     3.4537 C.3     
  23 C23            0.6685     8.5762     2.2540 C.3     
  24 C24            1.1153    -4.1852    -1.4721 C.3     
  25 C25            1.0948    -4.6879    -2.9170 C.3     
  26 O26            2.2314    11.4333     4.1272 O.3     
  27 H27           -0.9578     1.8743     0.0168 H       
  28 H28           -0.9304    -0.5488     0.0080 H       
  29 H29            2.0466    -2.5309     0.4840 H       
  30 H30            0.2669    -2.5064     0.5008 H       
  31 H31            0.2785     3.7148    -1.9255 H       
  32 H32            0.2796     6.1722    -1.9087 H       
  33 H33            2.1238     6.1525     1.9534 H       
  34 H34            2.1201     3.6950     1.9474 H       
  35 H35            0.2468    -2.2773    -1.9682 H       
  36 H36            2.0265    -2.3018    -1.9850 H       
  37 H37            0.8397     8.1976    -0.7254 H       
  38 H38            2.5968     7.8859     1.5862 H       
  39 H39            2.9761     9.7245    -0.0338 H       
  40 H40            1.3583    10.3743     0.3249 H       
  41 H41            3.6266    10.0342     2.3389 H       
  42 H42            3.1049    11.5735     1.6134 H       
  43 H43            0.8496    11.2740     2.5996 H       
  44 H44            2.0880     8.7856     3.8608 H       
  45 H45            0.4702     9.4354     4.2195 H       
  46 H46           -0.1802     9.1257     1.8468 H       
  47 H47            0.3415     7.5864     2.5724 H       
  48 H48            2.0050    -4.5634    -0.9684 H       
  49 H49            0.2253    -4.5389    -0.9517 H       
  50 H50            0.2051    -4.3098    -3.4206 H       
  51 H51            1.9849    -4.3343    -3.4374 H       
  52 H52            1.0798    -5.7778    -2.9223 H       
  53 H53            1.6005    11.5597     4.8491 H       
@<TRIPOS>BOND
   1    1    2 2
   2    1    6 1
   3    1   27 1
   4    2    3 1
   5    2   28 1
   6    3    4 am
   7    3    7 1
   8    4    5 1
   9    4    8 2
  10    5    6 2
  11    5    9 1
  12    6   10 1
  13    7   16 1
  14    7   29 1
  15    7   30 1
  16   10   11 ar
  17   10   15 ar
  18   11   12 ar
  19   11   31 1
  20   12   13 ar
  21   12   32 1
  22   13   14 ar
  23   13   17 1
  24   14   15 ar
  25   14   33 1
  26   15   34 1
  27   16   24 1
  28   16   35 1
  29   16   36 1
  30   17   18 1
  31   17   37 1
  32   18   19 1
  33   18   23 1
  34   18   38 1
  35   19   20 1
  36   19   39 1
  37   19   40 1
  38   20   21 1
  39   20   41 1
  40   20   42 1
  41   21   22 1
  42   21   26 1
  43   21   43 1
  44   22   23 1
  45   22   44 1
  46   22   45 1
  47   23   46 1
  48   23   47 1
  49   24   25 1
  50   24   48 1
  51   24   49 1
  52   25   50 1
  53   25   51 1
  54   25   52 1
  55   26   53 1

#	End of record

