#	Name: ASD02030619
#	Creating user name:	WinNT
#	Creation time:	15. 06. 2019 20:15

#	Modifying user name:	WinNT
#	Modification time:	15. 06. 2019 20:15

#	Program:	/corina/corina34_cracker 3.40 0067  02.08.2006

@<TRIPOS>MOLECULE
ASD02030619
  74   78    0    0    0
SMALL
NO_CHARGES


@<TRIPOS>ATOM
   1 C1            -0.2044     1.4871     0.0029 C.ar    
   2 C2            -0.1228     0.1110    -0.0074 C.ar    
   3 C3             1.1207    -0.5035     0.0320 C.ar    
   4 C4             2.2668     0.2705     0.0872 C.ar    
   5 C5             2.1820     1.6568     0.1041 C.ar    
   6 C6             0.9465     2.2629     0.0528 C.ar    
   7 C7             0.7842     3.7623     0.0341 C.3     
   8 C8             3.4695     2.4330     0.1938 C.3     
   9 C9             3.2721     3.8710    -0.2831 C.3     
  10 N10            2.0621     4.4018     0.3644 N.am    
  11 C11            0.3368     4.2085    -1.3593 C.3     
  12 O12            1.2612     3.7228    -2.3348 O.3     
  13 C13            1.0077     4.0334    -3.6341 C.ar    
  14 C14            2.1260     5.4349     1.2276 C.2     
  15 O15            3.2049     5.8972     1.5434 O.2     
  16 C16            0.8837     6.0059     1.7906 C.ar    
  17 C17            0.4913     4.6652    -6.2794 C.ar    
  18 C18           -0.3622     5.1101    -5.2808 C.ar    
  19 C19           -0.1047     4.7946    -3.9609 C.ar    
  20 C20            1.8647     3.5938    -4.6322 C.ar    
  21 C21            1.6071     3.9093    -5.9521 C.ar    
  22 C22            0.8652     6.4845     3.0993 C.ar    
  23 C23           -0.2726     6.0724     1.0102 C.ar    
  24 C24           -1.4321     6.6062     1.5351 C.ar    
  25 C25           -1.4564     7.0774     2.8336 C.ar    
  26 C26           -0.3074     7.0206     3.6213 C.ar    
  27 O27            0.2378     4.9759    -7.5788 O.3     
  28 C28            1.1586     4.4845    -8.5548 C.3     
  29 C29            0.7118     4.9317    -9.9482 C.3     
  30 O30            1.2129    -1.8593     0.0171 O.3     
  31 C31           -0.0122    -2.5933     0.0654 C.3     
  32 C32            0.1969    -3.9759    -0.5557 C.3     
  33 C33           -0.4557    -2.7501     1.5213 C.3     
  34 C34           -0.3350     7.5326     5.0139 C.ar    
  35 C35           -1.5088     8.0699     5.5382 C.ar    
  36 C36           -1.5289     8.5447     6.8340 C.ar    
  37 C37           -0.3864     8.4883     7.6117 C.ar    
  38 C38            0.7817     7.9563     7.0961 C.ar    
  39 C39            0.8112     7.4726     5.8038 C.ar    
  40 H40           -1.1717     1.9662    -0.0325 H       
  41 H41           -1.0221    -0.4858    -0.0458 H       
  42 H42            3.2349    -0.2073     0.1178 H       
  43 H43            0.0321     4.0548     0.7668 H       
  44 H44            3.8111     2.4423     1.2288 H       
  45 H45            4.2236     1.9497    -0.4274 H       
  46 H46            4.1356     4.4743    -0.0027 H       
  47 H47            3.1468     3.8865    -1.3658 H       
  48 H48           -0.6553     3.8082    -1.5680 H       
  49 H49            0.3050     5.2973    -1.3994 H       
  50 H50           -1.2311     5.6988    -5.5357 H       
  51 H51           -0.7698     5.1404    -3.1833 H       
  52 H52            2.7335     3.0051    -4.3773 H       
  53 H53            2.2717     3.5628    -6.7297 H       
  54 H54            1.7576     6.4389     3.7060 H       
  55 H55           -0.2594     5.7058    -0.0056 H       
  56 H56           -2.3240     6.6560     0.9281 H       
  57 H57           -2.3668     7.4943     3.2384 H       
  58 H58            2.1530     4.8801    -8.3478 H       
  59 H59            1.1850     3.3956    -8.5138 H       
  60 H60           -0.2825     4.5361   -10.1552 H       
  61 H61            0.6855     6.0206    -9.9892 H       
  62 H62            1.4142     4.5570   -10.6927 H       
  63 H63           -0.7796    -2.0567    -0.4924 H       
  64 H64            0.9643    -4.5126     0.0021 H       
  65 H65           -0.7376    -4.5358    -0.5189 H       
  66 H66            0.5128    -3.8642    -1.5929 H       
  67 H67            0.3117    -3.2868     2.0791 H       
  68 H68           -0.6046    -1.7652     1.9638 H       
  69 H69           -1.3902    -3.3100     1.5581 H       
  70 H70           -2.4012     8.1151     4.9316 H       
  71 H71           -2.4382     8.9614     7.2414 H       
  72 H72           -0.4064     8.8613     8.6250 H       
  73 H73            1.6710     7.9150     7.7075 H       
  74 H74            1.7223     7.0527     5.4039 H       
@<TRIPOS>BOND
   1    1    2 ar
   2    1    6 ar
   3    1   40 1
   4    2    3 ar
   5    2   41 1
   6    3    4 ar
   7    3   30 1
   8    4    5 ar
   9    4   42 1
  10    5    6 ar
  11    5    8 1
  12    6    7 1
  13    7   10 1
  14    7   11 1
  15    7   43 1
  16    8    9 1
  17    8   44 1
  18    8   45 1
  19    9   10 1
  20    9   46 1
  21    9   47 1
  22   10   14 am
  23   11   12 1
  24   11   48 1
  25   11   49 1
  26   12   13 1
  27   13   20 ar
  28   13   19 ar
  29   14   15 2
  30   14   16 1
  31   16   23 ar
  32   16   22 ar
  33   17   18 ar
  34   17   21 ar
  35   17   27 1
  36   18   19 ar
  37   18   50 1
  38   19   51 1
  39   20   21 ar
  40   20   52 1
  41   21   53 1
  42   22   26 ar
  43   22   54 1
  44   23   24 ar
  45   23   55 1
  46   24   25 ar
  47   24   56 1
  48   25   26 ar
  49   25   57 1
  50   26   34 1
  51   27   28 1
  52   28   29 1
  53   28   58 1
  54   28   59 1
  55   29   60 1
  56   29   61 1
  57   29   62 1
  58   30   31 1
  59   31   32 1
  60   31   33 1
  61   31   63 1
  62   32   64 1
  63   32   65 1
  64   32   66 1
  65   33   67 1
  66   33   68 1
  67   33   69 1
  68   34   35 ar
  69   34   39 ar
  70   35   36 ar
  71   35   70 1
  72   36   37 ar
  73   36   71 1
  74   37   38 ar
  75   37   72 1
  76   38   39 ar
  77   38   73 1
  78   39   74 1

#	End of record

