#	Name: ASD01148914
#	Creating user name:	WinNT
#	Creation time:	15. 06. 2019 19:03

#	Modifying user name:	WinNT
#	Modification time:	15. 06. 2019 19:03

#	Program:	/corina/corina34_cracker 3.40 0067  02.08.2006

@<TRIPOS>MOLECULE
ASD01148914
  41   43    0    0    0
SMALL
NO_CHARGES


@<TRIPOS>ATOM
   1 C1            -0.9995     0.9667    -0.4327 C.ar    
   2 C2            -0.6783    -0.3721    -0.3197 C.ar    
   3 C3             0.6519    -0.7608    -0.2378 C.ar    
   4 C4             1.6557     0.1981    -0.2696 C.ar    
   5 C5             1.3283     1.5349    -0.3827 C.ar    
   6 C6             0.0022     1.9191    -0.4641 C.ar    
   7 S7            -2.6872     1.4605    -0.5441 S.o2    
   8 O8            -2.6927     2.7291    -1.1844 O.2     
   9 O9            -3.4022     0.3368    -1.0396 O.2     
  10 N10           -3.2268     1.7140     1.0008 N.am    
  11 C11           -2.6556     2.7948     1.8081 C.3     
  12 N12            0.9809    -2.1181    -0.1226 N.pl3   
  13 C13            1.6205    -2.8720    -1.0761 C.2     
  14 C14            1.7562    -4.1365    -0.5872 C.2     
  15 C15            1.1852    -4.1539     0.6962 C.2     
  16 C16            0.7247    -2.9116     0.9585 C.2     
  17 C17            0.0405    -2.4758     2.2286 C.3     
  18 C18            2.0800    -2.3959    -2.3980 C.ar    
  19 C19            3.0687    -3.0969    -3.0904 C.ar    
  20 C20            3.4930    -2.6479    -4.3238 C.ar    
  21 C21            2.9403    -1.5045    -4.8751 C.ar    
  22 C22            1.9596    -0.8047    -4.1930 C.ar    
  23 C23            1.5229    -1.2468    -2.9615 C.ar    
  24 Br24           3.5276    -0.8959    -6.5664 Br      
  25 H25           -1.4612    -1.1156    -0.2948 H       
  26 H26            2.6915    -0.1012    -0.2057 H       
  27 H27            2.1086     2.2812    -0.4072 H       
  28 H28           -0.2513     2.9652    -0.5525 H       
  29 H29           -3.9211     1.1469     1.3712 H       
  30 H30           -3.1319     2.8069     2.7884 H       
  31 H31           -1.5842     2.6325     1.9267 H       
  32 H32           -2.8255     3.7493     1.3099 H       
  33 H33            2.2175    -4.9717    -1.0933 H       
  34 H34            1.1284    -5.0067     1.3564 H       
  35 H35           -1.0348    -2.6259     2.1318 H       
  36 H36            0.4160    -3.0660     3.0645 H       
  37 H37            0.2454    -1.4204     2.4079 H       
  38 H38            3.5009    -3.9888    -2.6612 H       
  39 H39            4.2581    -3.1892    -4.8603 H       
  40 H40            1.5327     0.0870    -4.6279 H       
  41 H41            0.7544    -0.7028    -2.4326 H       
@<TRIPOS>BOND
   1    1    2 ar
   2    1    6 ar
   3    1    7 1
   4    2    3 ar
   5    2   25 1
   6    3    4 ar
   7    3   12 1
   8    4    5 ar
   9    4   26 1
  10    5    6 ar
  11    5   27 1
  12    6   28 1
  13    7    8 2
  14    7    9 2
  15    7   10 am
  16   10   11 1
  17   10   29 1
  18   11   30 1
  19   11   31 1
  20   11   32 1
  21   12   13 1
  22   12   16 1
  23   13   14 2
  24   13   18 1
  25   14   15 1
  26   14   33 1
  27   15   16 2
  28   15   34 1
  29   16   17 1
  30   17   35 1
  31   17   36 1
  32   17   37 1
  33   18   19 ar
  34   18   23 ar
  35   19   20 ar
  36   19   38 1
  37   20   21 ar
  38   20   39 1
  39   21   22 ar
  40   21   24 1
  41   22   23 ar
  42   22   40 1
  43   23   41 1

#	End of record

