#	Name: ASD01410830
#	Creating user name:	WinNT
#	Creation time:	15. 06. 2019 19:18

#	Modifying user name:	WinNT
#	Modification time:	15. 06. 2019 19:18

#	Program:	/corina/corina34_cracker 3.40 0067  02.08.2006

@<TRIPOS>MOLECULE
ASD01410830
 116  122    0    0    0
SMALL
NO_CHARGES


@<TRIPOS>ATOM
   1 C1             1.8936     0.8813     2.9351 C.3     
   2 C2             1.1243    -0.4355     2.6794 C.3     
   3 N3             1.1371    -1.1295     3.9836 N.am    
   4 C4             1.2444    -0.1212     5.0453 C.3     
   5 C5             1.3952     1.2535     4.3582 C.3     
   6 O6             3.3055     0.6609     2.9269 O.3     
   7 C7            -0.0009    -0.1362     5.8940 C.2     
   8 O8            -0.8973    -0.9131     5.6417 O.2     
   9 N9            -0.1182     0.7138     6.9333 N.am    
  10 C10            1.9021    -1.3041     1.6845 C.3     
  11 C11            1.2058    -3.3922     2.9637 C.3     
  12 C12            1.0974    -2.4635     4.1403 C.2     
  13 O13            0.9721    -2.9275     5.2539 O.2     
  14 C14           -0.0382    -4.2812     2.9111 C.3     
  15 C15           -1.1799    -3.5212     2.2330 C.3     
  16 C16            0.2745    -5.5493     2.1141 C.3     
  17 C17           -0.4533    -4.6622     4.3336 C.3     
  18 C18           -1.3773     0.7903     7.6784 C.3     
  19 C19           -2.5896     1.1717     6.8685 C.2     
  20 N20           -2.4522     1.5249     5.5752 N.am    
  21 O21           -3.6890     1.1608     7.3807 O.2     
  22 S22           -3.7660     2.0548     4.7175 S.o2    
  23 C23           -4.2376     3.6087     5.5259 C.3     
  24 C24           -1.5786    -0.1980     8.8288 C.3     
  25 C25           -1.3126     1.2797     9.1266 C.3     
  26 C26           -5.4422     4.3627     4.9590 C.3     
  27 C27           -5.5585     3.6310     6.2976 C.3     
  28 O28           -3.2563     2.3050     3.4148 O.2     
  29 O29           -4.7541     1.0578     4.9385 O.2     
  30 C30           -2.9741    -0.7152     9.0658 C.2     
  31 C31           -3.2180    -2.0001     8.9906 C.2     
  32 C32            4.0863     1.6866     2.5056 C.ar    
  33 C33            5.4970     1.5787     2.5197 C.ar    
  34 C34            3.5300     2.8525     2.0498 C.ar    
  35 C35            4.3581     3.8974     1.6201 C.ar    
  36 N36            5.6750     3.7893     1.6417 N.ar    
  37 C37            6.2753     2.6736     2.0712 C.ar    
  38 C38            3.7433     5.1525     1.1296 C.2     
  39 C39            4.4681     6.2042     0.6925 C.2     
  40 C40            7.6767     2.5708     2.0900 C.ar    
  41 C41            8.2677     1.4101     2.5377 C.ar    
  42 C42            7.4891     0.3343     2.9732 C.ar    
  43 C43            6.1300     0.4109     2.9691 C.ar    
  44 Cl44           8.6570     3.8985     1.5516 Cl      
  45 O45            9.6226     1.3096     2.5558 O.3     
  46 C46           10.1757     0.0807     3.0310 C.3     
  47 N47            2.4318     5.3410     1.0753 N.2     
  48 C48            2.0198     6.4759     0.6290 C.2     
  49 S49            3.3438     7.4709     0.2074 S.3     
  50 C50            0.5717     6.8710     0.4945 C.3     
  51 C51            0.2997     8.1104     1.3494 C.3     
  52 C52            0.2626     7.1844    -0.9709 C.3     
  53 C53           -3.0804     4.4414     6.0811 C.3     
  54 N54            1.3167    -2.6506     1.7096 N.am    
  55 O55            0.8554    -2.4850    -0.5715 O.3     
  56 C56            0.3697    -3.1501    -1.7674 C.3     
  57 C57           -1.0725    -3.6100    -1.5451 C.3     
  58 C58            0.4186    -2.1775    -2.9474 C.3     
  59 C59            1.2511    -4.3636    -2.0697 C.3     
  60 C60            0.8773    -3.2081     0.5639 C.2     
  61 O61            0.5008    -4.3634     0.5558 O.2     
  62 H62            1.6145     1.6452     2.2095 H       
  63 H63            0.1061    -0.2413     2.3422 H       
  64 H64            2.1190    -0.3249     5.6630 H       
  65 H65            2.1333     1.8648     4.8774 H       
  66 H66            0.4348     1.7667     4.3082 H       
  67 H67            0.6309     1.2748     7.1880 H       
  68 H68            1.8172    -0.8834     0.6825 H       
  69 H69            2.9508    -1.3520     1.9777 H       
  70 H70            2.0882    -4.0204     3.0852 H       
  71 H71           -0.8842    -3.2498     1.2196 H       
  72 H72           -2.0662    -4.1546     2.1955 H       
  73 H73           -1.4027    -2.6178     2.8007 H       
  74 H74            1.3477    -5.6092     1.9331 H       
  75 H75           -0.0478    -6.4231     2.6805 H       
  76 H76           -0.2537    -5.5190     1.1611 H       
  77 H77           -0.6761    -3.7589     4.9013 H       
  78 H78           -1.3396    -5.2956     4.2961 H       
  79 H79            0.3600    -5.2037     4.8167 H       
  80 H80           -1.5838     1.4688     5.1467 H       
  81 H81           -0.7742    -0.9052     9.0314 H       
  82 H82           -0.3332     1.5445     9.5251 H       
  83 H83           -2.1469     1.8773     9.4937 H       
  84 H84           -5.4104     5.4520     4.9819 H       
  85 H85           -5.9513     3.9250     4.1003 H       
  86 H86           -6.1441     2.7119     6.3196 H       
  87 H87           -5.6033     4.2389     7.2012 H       
  88 H88           -3.7731    -0.0265     9.2975 H       
  89 H89           -4.2181    -2.3707     9.1604 H       
  90 H90           -2.4190    -2.6888     8.7589 H       
  91 H91            2.4563     2.9655     2.0215 H       
  92 H92            5.5458     6.2595     0.6485 H       
  93 H93            7.9716    -0.5675     3.3203 H       
  94 H94            5.5400    -0.4276     3.3086 H       
  95 H95           11.2638     0.1333     2.9930 H       
  96 H96            9.8558    -0.0882     4.0592 H       
  97 H97            9.8295    -0.7403     2.4032 H       
  98 H98           -0.0616     6.0506     0.8320 H       
  99 H99            0.9331     8.9308     1.0119 H       
 100 H100          -0.7476     8.3962     1.2521 H       
 101 H101           0.5199     7.8871     2.3933 H       
 102 H102           0.4564     6.3015    -1.5800 H       
 103 H103          -0.7847     7.4702    -1.0682 H       
 104 H104           0.8960     8.0048    -1.3084 H       
 105 H105          -2.6766     5.0746     5.2910 H       
 106 H106          -3.4414     5.0659     6.8983 H       
 107 H107          -2.2987     3.7771     6.4495 H       
 108 H108          -1.7005    -2.7455    -1.3297 H       
 109 H109          -1.4371    -4.1093    -2.4428 H       
 110 H110          -1.1074    -4.3029    -0.7044 H       
 111 H111           1.4460    -1.8498    -3.1058 H       
 112 H112           0.0540    -2.6768    -3.8452 H       
 113 H113          -0.2094    -1.3130    -2.7321 H       
 114 H114           1.2162    -5.0565    -1.2290 H       
 115 H115           0.8865    -4.8628    -2.9674 H       
 116 H116           2.2786    -4.0359    -2.2281 H       
@<TRIPOS>BOND
   1    1    2 1
   2    1    6 1
   3    1    5 1
   4    1   62 1
   5    2    3 1
   6    2   10 1
   7    2   63 1
   8    3    4 1
   9    3   12 am
  10    4    5 1
  11    4    7 1
  12    4   64 1
  13    5   65 1
  14    5   66 1
  15    6   32 1
  16    7    8 2
  17    7    9 am
  18    9   18 1
  19    9   67 1
  20   10   54 1
  21   10   68 1
  22   10   69 1
  23   11   12 1
  24   11   14 1
  25   11   54 1
  26   11   70 1
  27   12   13 2
  28   14   15 1
  29   14   16 1
  30   14   17 1
  31   15   71 1
  32   15   72 1
  33   15   73 1
  34   16   74 1
  35   16   75 1
  36   16   76 1
  37   17   77 1
  38   17   78 1
  39   17   79 1
  40   18   19 1
  41   18   24 1
  42   18   25 1
  43   19   20 am
  44   19   21 2
  45   20   22 am
  46   20   80 1
  47   22   23 1
  48   22   28 2
  49   22   29 2
  50   23   26 1
  51   23   53 1
  52   23   27 1
  53   24   25 1
  54   24   30 1
  55   24   81 1
  56   25   82 1
  57   25   83 1
  58   26   27 1
  59   26   84 1
  60   26   85 1
  61   27   86 1
  62   27   87 1
  63   30   31 2
  64   30   88 1
  65   31   89 1
  66   31   90 1
  67   32   33 ar
  68   32   34 ar
  69   33   37 ar
  70   33   43 ar
  71   34   35 ar
  72   34   91 1
  73   35   36 ar
  74   35   38 1
  75   36   37 ar
  76   37   40 ar
  77   38   47 1
  78   38   39 2
  79   39   49 1
  80   39   92 1
  81   40   41 ar
  82   40   44 1
  83   41   42 ar
  84   41   45 1
  85   42   43 ar
  86   42   93 1
  87   43   94 1
  88   45   46 1
  89   46   95 1
  90   46   96 1
  91   46   97 1
  92   47   48 2
  93   48   49 1
  94   48   50 1
  95   50   51 1
  96   50   52 1
  97   50   98 1
  98   51   99 1
  99   51  100 1
 100   51  101 1
 101   52  102 1
 102   52  103 1
 103   52  104 1
 104   53  105 1
 105   53  106 1
 106   53  107 1
 107   54   60 am
 108   55   56 1
 109   55   60 1
 110   56   57 1
 111   56   58 1
 112   56   59 1
 113   57  108 1
 114   57  109 1
 115   57  110 1
 116   58  111 1
 117   58  112 1
 118   58  113 1
 119   59  114 1
 120   59  115 1
 121   59  116 1
 122   60   61 2

#	End of record

