#	Name: ASD03240997
#	Creating user name:	WinNT
#	Creation time:	15. 06. 2019 20:35

#	Modifying user name:	WinNT
#	Modification time:	15. 06. 2019 20:35

#	Program:	/corina/corina34_cracker 3.40 0067  02.08.2006

@<TRIPOS>MOLECULE
ASD03240997
  62   67    0    0    0
SMALL
NO_CHARGES


@<TRIPOS>ATOM
   1 C1             0.1810     1.5419    -0.5565 C.3     
   2 C2             0.2150     0.0051    -0.5978 C.3     
   3 C3             1.6635     0.1289    -1.0992 C.3     
   4 C4             1.7090     1.4929    -0.3904 C.3     
   5 O5            -0.2425     2.1384    -1.7840 O.3     
   6 C6            -0.5503     2.1062     0.6633 C.3     
   7 C7             2.5979    -0.8924    -0.5036 C.ar    
   8 C8             3.6877    -1.3361    -1.2312 C.ar    
   9 C9             4.5466    -2.2715    -0.6914 C.ar    
  10 C10            4.3145    -2.7693     0.5907 C.ar    
  11 C11            3.2143    -2.3177     1.3194 C.ar    
  12 C12            2.3656    -1.3782     0.7708 C.ar    
  13 N13            6.8851    -6.7688     0.1177 N.pl3   
  14 C14            7.7333    -7.7071     0.6429 C.2     
  15 N15            8.1678    -7.6259     1.9129 N.2     
  16 C16            7.8048    -6.6524     2.7073 C.2     
  17 C17            6.9300    -5.6459     2.2326 C.ar    
  18 C18            6.5165    -4.5837     3.0564 C.ar    
  19 C19            5.6498    -3.6321     2.5103 C.ar    
  20 C20            5.2323    -3.7738     1.1757 C.ar    
  21 N21            5.6444    -4.7901     0.4310 N.ar    
  22 C22            6.4632    -5.7142     0.9040 C.ar    
  23 C23            7.9801    -8.6306    -0.3619 C.2     
  24 C24            7.2699    -8.2304    -1.4874 C.2     
  25 N25            6.6145    -7.1291    -1.2067 N.2     
  26 C26            5.1777    -2.4896     3.3275 C.ar    
  27 C27            4.3348    -2.7089     4.4163 C.ar    
  28 C28            3.8989    -1.6410     5.1739 C.ar    
  29 C29            4.2965    -0.3550     4.8550 C.ar    
  30 C30            5.1327    -0.1313     3.7759 C.ar    
  31 C31            5.5794    -1.1917     3.0141 C.ar    
  32 C32            7.2514    -8.9474    -2.8127 C.3     
  33 O33            6.9431    -4.4865     4.3390 O.3     
  34 C34            8.1978    -3.8385     4.5580 C.3     
  35 N35            1.7744     0.2215    -2.5611 N.3     
  36 H36            0.1312    -0.4601     0.3843 H       
  37 H37           -0.4655    -0.4271    -1.3315 H       
  38 H38            2.2347     2.2619    -0.9565 H       
  39 H39            2.0337     1.4345     0.6485 H       
  40 H40           -0.2659     3.1049    -1.7642 H       
  41 H41           -0.0546     1.7672     1.5730 H       
  42 H42           -0.5340     3.1954     0.6249 H       
  43 H43           -1.5831     1.7579     0.6609 H       
  44 H44            3.8664    -0.9499    -2.2238 H       
  45 H45            5.3966    -2.6177    -1.2607 H       
  46 H46            3.0292    -2.6997     2.3125 H       
  47 H47            1.5159    -1.0245     1.3358 H       
  48 H48            8.1716    -6.6165     3.7225 H       
  49 H49            8.6110    -9.5037    -0.2839 H       
  50 H50            4.0234    -3.7124     4.6660 H       
  51 H51            3.2457    -1.8096     6.0173 H       
  52 H52            3.9525     0.4776     5.4506 H       
  53 H53            5.4396     0.8750     3.5315 H       
  54 H54            6.2355    -1.0162     2.1744 H       
  55 H55            6.4403    -9.6755    -2.8206 H       
  56 H56            7.0991    -8.2250    -3.6146 H       
  57 H57            8.2016    -9.4604    -2.9615 H       
  58 H58            8.9674    -4.3247     3.9584 H       
  59 H59            8.1206    -2.7902     4.2693 H       
  60 H60            8.4624    -3.9062     5.6132 H       
  61 H61            2.7389     0.3012    -2.8463 H       
  62 H62            1.3290    -0.5659    -3.0080 H       
@<TRIPOS>BOND
   1    1    2 1
   2    1    4 1
   3    1    5 1
   4    1    6 1
   5    2    3 1
   6    2   36 1
   7    2   37 1
   8    3    4 1
   9    3    7 1
  10    3   35 1
  11    4   38 1
  12    4   39 1
  13    5   40 1
  14    6   41 1
  15    6   42 1
  16    6   43 1
  17    7    8 ar
  18    7   12 ar
  19    8    9 ar
  20    8   44 1
  21    9   10 ar
  22    9   45 1
  23   10   11 ar
  24   10   20 1
  25   11   12 ar
  26   11   46 1
  27   12   47 1
  28   13   14 1
  29   13   22 1
  30   13   25 1
  31   14   15 1
  32   14   23 2
  33   15   16 2
  34   16   17 1
  35   16   48 1
  36   17   18 ar
  37   17   22 ar
  38   18   19 ar
  39   18   33 1
  40   19   20 ar
  41   19   26 1
  42   20   21 ar
  43   21   22 ar
  44   23   24 1
  45   23   49 1
  46   24   25 2
  47   24   32 1
  48   26   27 ar
  49   26   31 ar
  50   27   28 ar
  51   27   50 1
  52   28   29 ar
  53   28   51 1
  54   29   30 ar
  55   29   52 1
  56   30   31 ar
  57   30   53 1
  58   31   54 1
  59   32   55 1
  60   32   56 1
  61   32   57 1
  62   33   34 1
  63   34   58 1
  64   34   59 1
  65   34   60 1
  66   35   61 1
  67   35   62 1

#	End of record

