#	Name: ASD09740169
#	Creating user name:	WinNT
#	Creation time:	15. 06. 2019 21:22

#	Modifying user name:	WinNT
#	Modification time:	15. 06. 2019 21:22

#	Program:	/corina/corina34_cracker 3.40 0067  02.08.2006

@<TRIPOS>MOLECULE
ASD09740169
  42   44    0    0    0
SMALL
NO_CHARGES


@<TRIPOS>ATOM
   1 C1            -0.0184     1.5028     0.0103 C.3     
   2 O2             0.0931    -6.2067     0.6782 O.3     
   3 N3             0.0831    -5.0435     1.0210 N.2     
   4 C4             0.0753    -6.2881    -0.6622 C.2     
   5 N5             0.0531    -5.0493    -1.1205 N.2     
   6 C6             0.0584    -4.2601    -0.0270 C.2     
   7 C7             0.0388    -2.7757    -0.0144 C.ar    
   8 C8             0.0802    -7.5224    -1.4672 C.2     
   9 C9             0.0119    -2.0673    -1.2137 C.ar    
  10 C10            0.0408    -2.0876     1.1963 C.ar    
  11 C11            0.0230    -0.7027     1.2015 C.ar    
  12 C12            0.0021    -0.0041     0.0020 C.ar    
  13 C13           -0.0063    -0.6868    -1.1996 C.ar    
  14 O14            0.0249    -0.0276     2.3810 O.3     
  15 C15            0.0459    -0.8102     3.5765 C.3     
  16 C16            0.1031    -8.8097    -1.0003 C.2     
  17 C17            0.0972    -9.5945    -2.1729 C.2     
  18 N18            0.0728    -8.7648    -3.1760 N.2     
  19 O19            0.0571    -7.6127    -2.8101 O.3     
  20 C20            0.1155   -11.0995    -2.2493 C.3     
  21 C21           -1.0716   -11.5822    -3.0852 C.3     
  22 C22           -0.9079   -11.1016    -4.5285 C.3     
  23 C23           -1.1252   -13.1110    -3.0597 C.3     
  24 H24            1.0042     1.8801     0.0026 H       
  25 H25           -0.5455     1.8639    -0.8728 H       
  26 H26           -0.5286     1.8543     0.9071 H       
  27 H27            0.0057    -2.5979    -2.1543 H       
  28 H28            0.0564    -2.6325     2.1286 H       
  29 H29           -0.0222    -0.1389    -2.1302 H       
  30 H30            0.9441    -1.4276     3.5908 H       
  31 H31            0.0452    -0.1495     4.4434 H       
  32 H32           -0.8356    -1.4506     3.6070 H       
  33 H33            0.1218    -9.1457     0.0260 H       
  34 H34            1.0449   -11.4284    -2.7141 H       
  35 H35            0.0450   -11.5152    -1.2441 H       
  36 H36           -1.9956   -11.1792    -2.6707 H       
  37 H37           -0.8697   -10.0124    -4.5467 H       
  38 H38            0.0161   -11.5045    -4.9431 H       
  39 H39           -1.7536   -11.4455    -5.1241 H       
  40 H40           -1.2418   -13.4534    -2.0315 H       
  41 H41           -1.9709   -13.4549    -3.6552 H       
  42 H42           -0.2011   -13.5139    -3.4742 H       
@<TRIPOS>BOND
   1    1   12 1
   2    1   24 1
   3    1   25 1
   4    1   26 1
   5    2    3 1
   6    2    4 1
   7    3    6 2
   8    4    5 2
   9    4    8 1
  10    5    6 1
  11    6    7 1
  12    7    9 ar
  13    7   10 ar
  14    8   16 2
  15    8   19 1
  16    9   13 ar
  17    9   27 1
  18   10   11 ar
  19   10   28 1
  20   11   12 ar
  21   11   14 1
  22   12   13 ar
  23   13   29 1
  24   14   15 1
  25   15   30 1
  26   15   31 1
  27   15   32 1
  28   16   17 1
  29   16   33 1
  30   17   18 2
  31   17   20 1
  32   18   19 1
  33   20   21 1
  34   20   34 1
  35   20   35 1
  36   21   22 1
  37   21   23 1
  38   21   36 1
  39   22   37 1
  40   22   38 1
  41   22   39 1
  42   23   40 1
  43   23   41 1
  44   23   42 1

#	End of record

