#	Name: ASD01410726
#	Creating user name:	WinNT
#	Creation time:	15. 06. 2019 19:18

#	Modifying user name:	WinNT
#	Modification time:	15. 06. 2019 19:18

#	Program:	/corina/corina34_cracker 3.40 0067  02.08.2006

@<TRIPOS>MOLECULE
ASD01410726
 123  129    0    0    0
SMALL
NO_CHARGES


@<TRIPOS>ATOM
   1 C1             1.9026     0.8881     2.9229 C.3     
   2 C2             1.1431    -0.4296     2.6437 C.3     
   3 N3             1.1458    -1.1388     3.9398 N.am    
   4 C4             1.2364    -0.1424     5.0142 C.3     
   5 C5             1.3871     1.2410     4.3448 C.3     
   6 O6             3.3157     0.6752     2.9272 O.3     
   7 C7            -0.0177    -0.1738     5.8493 C.2     
   8 O8            -0.9073    -0.9524     5.5785 O.2     
   9 N9            -0.1506     0.6634     6.8971 N.am    
  10 C10            1.9360    -1.2824     1.6471 C.3     
  11 C11            1.2374    -3.3890     2.8945 C.3     
  12 C12            1.1115    -2.4747     4.0806 C.2     
  13 O13            0.9769    -2.9523     5.1872 O.2     
  14 C14           -0.0012    -4.2838     2.8182 C.3     
  15 C15           -1.1397    -3.5219     2.1368 C.3     
  16 C16           -1.4178     0.7243     7.6298 C.3     
  17 C17           -2.6238     1.1080     6.8117 C.2     
  18 N18           -2.4751     1.4766     5.5239 N.am    
  19 O19           -3.7283     1.0851     7.3122 O.2     
  20 S20           -3.7828     2.0088     4.6586 S.o2    
  21 C21           -4.2715     3.5509     5.4795 C.3     
  22 C22           -1.6253    -0.2782     8.7669 C.3     
  23 C23           -1.3709     1.1976     9.0840 C.3     
  24 C24           -5.5425     4.2432     4.9834 C.3     
  25 C25           -5.5402     3.5248     6.3343 C.3     
  26 O26           -3.2612     2.2766     3.3642 O.2     
  27 O27           -4.7676     1.0040     4.8581 O.2     
  28 C28           -3.0202    -0.8059     8.9834 C.2     
  29 C29           -3.2558    -2.0912     8.8912 C.2     
  30 C30            4.0951     1.7078     2.5206 C.ar    
  31 C31            5.5054     1.6102     2.5507 C.ar    
  32 C32            3.5340     2.8827     2.0600 C.ar    
  33 C33            4.3644     3.9310     1.6472 C.ar    
  34 N34            5.6798     3.8268     1.6859 N.ar    
  35 C35            6.2810     2.7136     2.1166 C.ar    
  36 C36            3.7517     5.1890     1.1539 C.ar    
  37 C37            7.6835     2.6200     2.1517 C.ar    
  38 C38            8.2769     1.4615     2.6004 C.ar    
  39 C39            7.5009     0.3776     3.0214 C.ar    
  40 C40            6.1417     0.4443     3.0016 C.ar    
  41 Cl41           8.6611     3.9571     1.6318 Cl      
  42 O42            9.6322     1.3705     2.6341 O.3     
  43 C43           10.1884     0.1430     3.1096 C.3     
  44 C44            0.3267    -5.5408     2.0100 C.3     
  45 N45            2.4309     5.3044     1.1104 N.ar    
  46 C46           11.7156     0.2279     3.0748 C.3     
  47 O47           12.1584     1.2258     3.9968 O.3     
  48 C48           13.5776     1.3862     4.0425 C.3     
  49 C49            1.8476     6.4037     0.6794 C.ar    
  50 C50            2.5972     7.4855     0.2536 C.ar    
  51 C51            3.9821     7.4070     0.2826 C.ar    
  52 C52            4.5683     6.2413     0.7457 C.ar    
  53 C53            0.3430     6.4840     0.6493 C.3     
  54 C54           -0.1577     7.1531     1.9309 C.3     
  55 C55           -0.0997     7.3070    -0.5621 C.3     
  56 C56           -0.4293    -4.6836     4.2317 C.3     
  57 N57            1.3577    -2.6322     1.6503 N.am    
  58 O58            0.9192    -2.4423    -0.6335 O.3     
  59 C59            0.4499    -3.0959    -1.8421 C.3     
  60 C60           -0.9919    -3.5665    -1.6403 C.3     
  61 C61            0.5056    -2.1092    -3.0101 C.3     
  62 C62            1.3413    -4.3008    -2.1494 C.3     
  63 C63            0.9334    -3.1786     0.4936 C.2     
  64 O64            0.5636    -4.3358     0.4680 O.2     
  65 H65            1.6272     1.6590     2.2032 H       
  66 H66            0.1275    -0.2368     2.2979 H       
  67 H67            2.1055    -0.3487     5.6388 H       
  68 H68            2.1164     1.8501     4.8789 H       
  69 H69            0.4246     1.7497     4.2905 H       
  70 H70            0.5927     1.2255     7.1662 H       
  71 H71            1.8596    -0.8506     0.6492 H       
  72 H72            2.9818    -1.3284     1.9509 H       
  73 H73            2.1219    -4.0140     3.0181 H       
  74 H74           -0.8347    -3.2371     1.1299 H       
  75 H75           -2.0221    -4.1595     2.0825 H       
  76 H76           -1.3733    -2.6264     2.7127 H       
  77 H77           -1.6019     1.4300     5.1039 H       
  78 H78           -3.4511     4.1853     5.8150 H       
  79 H79           -0.8190    -0.9830     8.9698 H       
  80 H80           -0.3973     1.4633     9.4958 H       
  81 H81           -2.2125     1.7862     9.4492 H       
  82 H82           -5.5585     5.3330     4.9930 H       
  83 H83           -6.0851     3.7720     4.1638 H       
  84 H84           -6.0812     2.5811     6.4034 H       
  85 H85           -5.5545     4.1421     7.2326 H       
  86 H86           -3.8255    -0.1245     9.2145 H       
  87 H87           -2.4505    -2.7727     8.6600 H       
  88 H88           -4.2555    -2.4694     9.0463 H       
  89 H89            2.4604     2.9918     2.0182 H       
  90 H90            7.9859    -0.5223     3.3699 H       
  91 H91            5.5540    -0.4003     3.3295 H       
  92 H92            9.8575    -0.0334     4.1330 H       
  93 H93            9.8554    -0.6772     2.4736 H       
  94 H94            1.4021    -5.5932     1.8398 H       
  95 H95            0.0030    -6.4229     2.5625 H       
  96 H96           -0.1913    -5.5020     1.0517 H       
  97 H97           12.1395    -0.7371     3.3526 H       
  98 H98           12.0420     0.4921     2.0689 H       
  99 H99           13.8326     2.1612     4.7653 H       
 100 H100          14.0402     0.4452     4.3404 H       
 101 H101          13.9426     1.6744     3.0568 H       
 102 H102           2.1092     8.3823    -0.0984 H       
 103 H103           4.5892     8.2380    -0.0450 H       
 104 H104           5.6434     6.1461     0.7823 H       
 105 H105          -0.0731     5.4791     0.5776 H       
 106 H106           0.2584     8.1580     2.0027 H       
 107 H107          -1.2460     7.2112     1.9092 H       
 108 H108           0.1576     6.5668     2.7940 H       
 109 H109           0.3165     8.3119    -0.4904 H       
 110 H110           0.2571     6.8303    -1.4752 H       
 111 H111          -1.1879     7.3651    -0.5839 H       
 112 H112          -0.6630    -3.7881     4.8075 H       
 113 H113          -1.3118    -5.3212     4.1773 H       
 114 H114           0.3817    -5.2264     4.7171 H       
 115 H115          -1.6270    -2.7081    -1.4214 H       
 116 H116          -1.3443    -4.0571    -2.5476 H       
 117 H117          -1.0316    -4.2694    -0.8083 H       
 118 H118           1.5327    -1.7739    -3.1538 H       
 119 H119           0.1532    -2.5998    -3.9173 H       
 120 H120          -0.1295    -1.2508    -2.7911 H       
 121 H121           1.3016    -5.0037    -1.3173 H       
 122 H122           0.9890    -4.7915    -3.0567 H       
 123 H123           2.3685    -3.9655    -2.2931 H       
@<TRIPOS>BOND
   1    1    2 1
   2    1    6 1
   3    1    5 1
   4    1   65 1
   5    2    3 1
   6    2   10 1
   7    2   66 1
   8    3    4 1
   9    3   12 am
  10    4    5 1
  11    4    7 1
  12    4   67 1
  13    5   68 1
  14    5   69 1
  15    6   30 1
  16    7    8 2
  17    7    9 am
  18    9   16 1
  19    9   70 1
  20   10   57 1
  21   10   71 1
  22   10   72 1
  23   11   12 1
  24   11   14 1
  25   11   57 1
  26   11   73 1
  27   12   13 2
  28   14   15 1
  29   14   44 1
  30   14   56 1
  31   15   74 1
  32   15   75 1
  33   15   76 1
  34   16   17 1
  35   16   22 1
  36   16   23 1
  37   17   18 am
  38   17   19 2
  39   18   20 am
  40   18   77 1
  41   20   21 1
  42   20   26 2
  43   20   27 2
  44   21   24 1
  45   21   25 1
  46   21   78 1
  47   22   23 1
  48   22   28 1
  49   22   79 1
  50   23   80 1
  51   23   81 1
  52   24   25 1
  53   24   82 1
  54   24   83 1
  55   25   84 1
  56   25   85 1
  57   28   29 2
  58   28   86 1
  59   29   87 1
  60   29   88 1
  61   30   31 ar
  62   30   32 ar
  63   31   35 ar
  64   31   40 ar
  65   32   33 ar
  66   32   89 1
  67   33   34 ar
  68   33   36 1
  69   34   35 ar
  70   35   37 ar
  71   36   45 ar
  72   36   52 ar
  73   37   38 ar
  74   37   41 1
  75   38   39 ar
  76   38   42 1
  77   39   40 ar
  78   39   90 1
  79   40   91 1
  80   42   43 1
  81   43   46 1
  82   43   92 1
  83   43   93 1
  84   44   94 1
  85   44   95 1
  86   44   96 1
  87   45   49 ar
  88   46   47 1
  89   46   97 1
  90   46   98 1
  91   47   48 1
  92   48   99 1
  93   48  100 1
  94   48  101 1
  95   49   50 ar
  96   49   53 1
  97   50   51 ar
  98   50  102 1
  99   51   52 ar
 100   51  103 1
 101   52  104 1
 102   53   54 1
 103   53   55 1
 104   53  105 1
 105   54  106 1
 106   54  107 1
 107   54  108 1
 108   55  109 1
 109   55  110 1
 110   55  111 1
 111   56  112 1
 112   56  113 1
 113   56  114 1
 114   57   63 am
 115   58   59 1
 116   58   63 1
 117   59   60 1
 118   59   61 1
 119   59   62 1
 120   60  115 1
 121   60  116 1
 122   60  117 1
 123   61  118 1
 124   61  119 1
 125   61  120 1
 126   62  121 1
 127   62  122 1
 128   62  123 1
 129   63   64 2

#	End of record

