#	Name: ASD01916271
#	Creating user name:	WinNT
#	Creation time:	15. 06. 2019 20:07

#	Modifying user name:	WinNT
#	Modification time:	15. 06. 2019 20:07

#	Program:	/corina/corina34_cracker 3.40 0067  02.08.2006

@<TRIPOS>MOLECULE
ASD01916271
  37   39    0    0    0
SMALL
NO_CHARGES


@<TRIPOS>ATOM
   1 C1            -0.0540     1.3251    -0.2458 C.ar    
   2 C2             0.0319    -0.0537    -0.1707 C.ar    
   3 C3             1.2260    -0.6575     0.1721 C.ar    
   4 C4             2.3498     0.1246     0.4432 C.ar    
   5 C5             2.2612     1.5150     0.3665 C.ar    
   6 C6             1.0593     2.1105     0.0224 C.ar    
   7 O7             0.9695     3.4643    -0.0537 O.3     
   8 C8             1.4648     4.0753    -1.1621 C.ar    
   9 C9             1.3992     5.4576    -1.3043 C.ar    
  10 N10            1.8930     6.0146    -2.3979 N.ar    
  11 C11            2.4408     5.2783    -3.3437 C.ar    
  12 N12            2.5213     3.9664    -3.2461 N.ar    
  13 C13            2.0557     3.3351    -2.1810 C.ar    
  14 Cl14          -1.3652    -1.0276    -0.5076 Cl      
  15 C15            3.6293    -0.5179     0.8108 C.2     
  16 N16            3.7121    -1.8611     0.8847 N.am    
  17 O17            4.6067     0.1651     1.0465 O.2     
  18 C18            4.9411    -2.4710     1.1268 C.ar    
  19 C19            5.0422    -3.8569     1.0861 C.ar    
  20 C20            7.3566    -3.6325     1.6034 C.ar    
  21 C21            7.1850    -2.2621     1.6225 C.ar    
  22 N22            6.0033    -1.7251     1.3881 N.ar    
  23 C23            6.2690    -4.4497     1.3281 C.ar    
  24 C24            8.3618    -1.3693     1.9208 C.3     
  25 F25            7.9139    -0.2008     2.5463 F       
  26 F26            9.2527    -2.0388     2.7666 F       
  27 H27           -0.9890     1.7920    -0.5183 H       
  28 H28            1.2899    -1.7340     0.2306 H       
  29 H29            3.1275     2.1251     0.5755 H       
  30 H30            0.9514     6.0671    -0.5333 H       
  31 H31            2.8348     5.7638    -4.2243 H       
  32 H32            2.1250     2.2598    -2.1077 H       
  33 H33            2.9161    -2.4032     0.7693 H       
  34 H34            4.1749    -4.4628     0.8690 H       
  35 H35            8.3279    -4.0635     1.7965 H       
  36 H36            6.3777    -5.5240     1.3035 H       
  37 H37            8.8679    -1.1122     0.9903 H       
@<TRIPOS>BOND
   1    1    2 ar
   2    1    6 ar
   3    1   27 1
   4    2    3 ar
   5    2   14 1
   6    3    4 ar
   7    3   28 1
   8    4    5 ar
   9    4   15 1
  10    5    6 ar
  11    5   29 1
  12    6    7 1
  13    7    8 1
  14    8    9 ar
  15    8   13 ar
  16    9   10 ar
  17    9   30 1
  18   10   11 ar
  19   11   12 ar
  20   11   31 1
  21   12   13 ar
  22   13   32 1
  23   15   16 am
  24   15   17 2
  25   16   18 1
  26   16   33 1
  27   18   19 ar
  28   18   22 ar
  29   19   23 ar
  30   19   34 1
  31   20   21 ar
  32   20   23 ar
  33   20   35 1
  34   21   22 ar
  35   21   24 1
  36   23   36 1
  37   24   25 1
  38   24   26 1
  39   24   37 1

#	End of record

