#	Name: ASD00310308
#	Creating user name:	WinNT
#	Creation time:	15. 06. 2019 18:34

#	Modifying user name:	WinNT
#	Modification time:	15. 06. 2019 18:34

#	Program:	/corina/corina34_cracker 3.40 0067  02.08.2006

@<TRIPOS>MOLECULE
ASD00310308
  46   49    0    0    0
SMALL
NO_CHARGES


@<TRIPOS>ATOM
   1 N1            -0.0162     1.3426     0.0094 N.pl3   
   2 C2             0.0021    -0.0041     0.0020 C.2     
   3 C3             1.3064    -0.4496    -0.0128 C.2     
   4 C4             2.1540     0.7598    -0.0144 C.ar    
   5 C5             3.5274     0.9736    -0.0268 C.ar    
   6 C6             4.0195     2.2728    -0.0249 C.ar    
   7 C7             3.1343     3.3560    -0.0106 C.ar    
   8 C8             1.7742     3.1460     0.0021 C.ar    
   9 C9             1.2676     1.8488    -0.0001 C.ar    
  10 C10            1.7456    -1.7969    -0.0238 C.2     
  11 O11            0.9342    -2.6999    -0.0210 O.2     
  12 C12            5.4838     2.5115    -0.0375 C.ar    
  13 C13            6.0407     3.3933    -0.9618 C.ar    
  14 C14            7.4034     3.6119    -0.9687 C.ar    
  15 C15            8.2160     2.9575    -0.0605 C.ar    
  16 C16            7.6687     2.0808     0.8588 C.ar    
  17 C17            6.3066     1.8590     0.8785 C.ar    
  18 C18            9.7033     3.2004    -0.0730 C.3     
  19 C19           10.0321     4.3510     0.8429 C.2     
  20 O20            9.1460     4.9181     1.4464 O.2     
  21 N21           11.3109     4.7500     0.9914 N.am    
  22 C22           11.6564     5.8709     1.8800 C.3     
  23 C23           12.7866     5.4187     2.8116 C.3     
  24 O24           13.8533     4.8768     2.0290 O.3     
  25 C25           13.4968     3.7123     1.2802 C.3     
  26 C26           12.4035     4.0735     0.2745 C.3     
  27 Cl27           3.7560     4.9768    -0.0084 Cl      
  28 H28           -0.8217     1.8829     0.0163 H       
  29 H29           -0.8721    -0.6383     0.0073 H       
  30 H30            4.2077     0.1349    -0.0374 H       
  31 H31            1.0987     3.9886     0.0134 H       
  32 H32            2.8022    -2.0203    -0.0348 H       
  33 H33            5.4071     3.9044    -1.6715 H       
  34 H34            7.8361     4.2948    -1.6848 H       
  35 H35            8.3079     1.5723     1.5654 H       
  36 H36            5.8798     1.1777     1.5996 H       
  37 H37           10.2206     2.3041     0.2694 H       
  38 H38           10.0238     3.4400    -1.0869 H       
  39 H39           11.9890     6.7217     1.2853 H       
  40 H40           10.7848     6.1534     2.4704 H       
  41 H41           13.1513     6.2725     3.3826 H       
  42 H42           12.4123     4.6561     3.4946 H       
  43 H43           14.3724     3.3386     0.7495 H       
  44 H44           13.1251     2.9436     1.9576 H       
  45 H45           12.0264     3.1664    -0.1977 H       
  46 H46           12.8126     4.7403    -0.4846 H       
@<TRIPOS>BOND
   1    1    2 1
   2    1    9 1
   3    1   28 1
   4    2    3 2
   5    2   29 1
   6    3    4 1
   7    3   10 1
   8    4    5 ar
   9    4    9 ar
  10    5    6 ar
  11    5   30 1
  12    6    7 ar
  13    6   12 1
  14    7    8 ar
  15    7   27 1
  16    8    9 ar
  17    8   31 1
  18   10   11 2
  19   10   32 1
  20   12   13 ar
  21   12   17 ar
  22   13   14 ar
  23   13   33 1
  24   14   15 ar
  25   14   34 1
  26   15   16 ar
  27   15   18 1
  28   16   17 ar
  29   16   35 1
  30   17   36 1
  31   18   19 1
  32   18   37 1
  33   18   38 1
  34   19   20 2
  35   19   21 am
  36   21   22 1
  37   21   26 1
  38   22   23 1
  39   22   39 1
  40   22   40 1
  41   23   24 1
  42   23   41 1
  43   23   42 1
  44   24   25 1
  45   25   26 1
  46   25   43 1
  47   25   44 1
  48   26   45 1
  49   26   46 1

#	End of record

