#	Name: ASD01208039
#	Creating user name:	WinNT
#	Creation time:	15. 06. 2019 19:09

#	Modifying user name:	WinNT
#	Modification time:	15. 06. 2019 19:09

#	Program:	/corina/corina34_cracker 3.40 0067  02.08.2006

@<TRIPOS>MOLECULE
ASD01208039
  56   59    0    0    0
SMALL
NO_CHARGES


@<TRIPOS>ATOM
   1 C1             0.1678     1.1634     0.0169 C.ar    
   2 C2             0.2076    -0.2226    -0.0289 C.ar    
   3 C3            -0.9697    -0.9565     0.0145 C.ar    
   4 C4            -2.1898    -0.3074     0.1032 C.ar    
   5 C5            -2.2344     1.0870     0.1495 C.ar    
   6 C6            -1.0478     1.8207     0.1114 C.ar    
   7 C7            -3.5338     1.7841     0.2437 C.2     
   8 C8            -3.7125     3.1365     0.2956 C.2     
   9 N9            -4.7647     1.1828     0.2878 N.pl3   
  10 C10           -5.7247     2.1614     0.3740 C.2     
  11 C11           -5.0857     3.3820     0.3799 C.2     
  12 O12            1.3235     1.8772    -0.0255 O.3     
  13 C13            1.2054     3.2992    -0.1030 C.3     
  14 C14            2.4650     3.8812    -0.7475 C.3     
  15 O15            3.5890     3.6410     0.1016 O.3     
  16 C16            1.0404     3.8747     1.3050 C.3     
  17 O17           -0.9250    -2.3139    -0.0306 O.3     
  18 C18           -2.0903    -2.9944     0.1077 C.ar    
  19 C19           -2.9836    -3.0628    -0.9564 C.ar    
  20 C20           -2.3853    -3.6262     1.3114 C.ar    
  21 C21           -3.5615    -4.3157     1.4562 C.ar    
  22 C22           -4.4667    -4.3831     0.3897 C.ar    
  23 C23           -4.1627    -3.7493    -0.8217 C.ar    
  24 C24           -5.7280    -5.1202     0.5393 C.2     
  25 C25           -6.6443    -5.2939    -0.6445 C.3     
  26 O26           -6.0323    -5.5892     1.6157 O.2     
  27 C27           -7.1777     1.9448     0.4436 C.2     
  28 C28            4.8231     4.1476    -0.4106 C.3     
  29 N29           -8.0806     2.8837     0.5254 N.2     
  30 C30           -9.3354     2.5002     0.5777 C.2     
  31 C31           -9.5441     1.1800     0.5409 C.2     
  32 S32           -7.9800     0.3765     0.4225 S.3     
  33 H33            1.1574    -0.7319    -0.0988 H       
  34 H34           -3.1055    -0.8791     0.1362 H       
  35 H35           -1.0778     2.8997     0.1470 H       
  36 H36           -2.9323     3.8831     0.2755 H       
  37 H37           -4.9300     0.2274     0.2621 H       
  38 H38           -5.5591     4.3509     0.4393 H       
  39 H39            0.3354     3.5591    -0.7060 H       
  40 H40            2.6316     3.4056    -1.7140 H       
  41 H41            2.3385     4.9547    -0.8878 H       
  42 H42            0.9502     4.9594     1.2458 H       
  43 H43            0.1430     3.4601     1.7641 H       
  44 H44            1.9103     3.6148     1.9080 H       
  45 H45           -2.7481    -2.5740    -1.8902 H       
  46 H46           -1.6864    -3.5739     2.1331 H       
  47 H47           -3.7895    -4.8062     2.3910 H       
  48 H48           -4.8575    -3.7984    -1.6471 H       
  49 H49           -6.2518    -4.7333    -1.4930 H       
  50 H50           -6.7058    -6.3506    -0.9043 H       
  51 H51           -7.6378    -4.9232    -0.3924 H       
  52 H52            4.7456     5.2267    -0.5439 H       
  53 H53            5.6266     3.9251     0.2916 H       
  54 H54            5.0386     3.6775    -1.3701 H       
  55 H55          -10.1487     3.2074     0.6467 H       
  56 H56          -10.5062     0.6904     0.5740 H       
@<TRIPOS>BOND
   1    1    2 ar
   2    1   12 1
   3    1    6 ar
   4    2    3 ar
   5    2   33 1
   6    3    4 ar
   7    3   17 1
   8    4    5 ar
   9    4   34 1
  10    5    6 ar
  11    5    7 1
  12    6   35 1
  13    7    8 2
  14    7    9 1
  15    8   11 1
  16    8   36 1
  17    9   10 1
  18    9   37 1
  19   10   11 2
  20   10   27 1
  21   11   38 1
  22   12   13 1
  23   13   14 1
  24   13   16 1
  25   13   39 1
  26   14   15 1
  27   14   40 1
  28   14   41 1
  29   15   28 1
  30   16   42 1
  31   16   43 1
  32   16   44 1
  33   17   18 1
  34   18   19 ar
  35   18   20 ar
  36   19   23 ar
  37   19   45 1
  38   20   21 ar
  39   20   46 1
  40   21   22 ar
  41   21   47 1
  42   22   23 ar
  43   22   24 1
  44   23   48 1
  45   24   25 1
  46   24   26 2
  47   25   49 1
  48   25   50 1
  49   25   51 1
  50   27   29 2
  51   27   32 1
  52   28   52 1
  53   28   53 1
  54   28   54 1
  55   29   30 1
  56   30   31 2
  57   30   55 1
  58   31   32 1
  59   31   56 1

#	End of record

