#	Name: ASD01320161
#	Creating user name:	WinNT
#	Creation time:	15. 06. 2019 19:16

#	Modifying user name:	WinNT
#	Modification time:	15. 06. 2019 19:16

#	Program:	/corina/corina34_cracker 3.40 0067  02.08.2006

@<TRIPOS>MOLECULE
ASD01320161
  42   45    0    0    0
SMALL
NO_CHARGES


@<TRIPOS>ATOM
   1 Cl1            0.0021    -0.0041     0.0020 Cl      
   2 C2            -0.0215     1.7317     0.0116 C.2     
   3 S3             1.4120     2.7416     0.0033 S.3     
   4 C4             0.4526     4.2164     0.0204 C.2     
   5 C5            -0.8922     3.9003     0.0315 C.2     
   6 C6            -1.1202     2.4619     0.0203 C.2     
   7 C7            -1.6081     5.1289     0.0450 C.2     
   8 C8            -0.6947     6.1384     0.0417 C.2     
   9 N9             0.5711     5.5862     0.0266 N.pl3   
  10 C10           -1.0029     7.5704     0.0514 C.2     
  11 N11           -0.0036     8.4748     0.0468 N.am    
  12 C12           -0.3118     9.9069     0.0565 C.3     
  13 O13           -2.1615     7.9435     0.0636 O.2     
  14 C14            0.8646    10.6756     0.6593 C.3     
  15 C15            0.6765    12.1514     0.4216 C.ar    
  16 C16            0.0627    12.5908    -0.7437 C.ar    
  17 N17           -0.3789    11.6633    -1.6922 N.am    
  18 C18           -0.5611    10.3742    -1.3522 C.2     
  19 O19           -0.9306     9.5796    -2.1908 O.2     
  20 C20           -0.6454    12.0981    -3.0656 C.3     
  21 C21            0.6107    11.9645    -3.8875 C.2     
  22 O22            1.6283    11.5472    -3.3763 O.2     
  23 N23            0.6033    12.3087    -5.1905 N.am    
  24 C24           -0.1110    13.9509    -0.9632 C.ar    
  25 C25            0.3269    14.8616    -0.0218 C.ar    
  26 C26            0.9374    14.4204     1.1382 C.ar    
  27 C27            1.1123    13.0666     1.3593 C.ar    
  28 H28           -2.1092     2.0279     0.0218 H       
  29 H29           -2.6822     5.2408     0.0555 H       
  30 H30            1.4047     6.0820     0.0216 H       
  31 H31            0.9196     8.1774     0.0371 H       
  32 H32           -1.2042    10.0812     0.6576 H       
  33 H33            0.9129    10.4836     1.7311 H       
  34 H34            1.7918    10.3473     0.1895 H       
  35 H35           -1.4300    11.4769    -3.4976 H       
  36 H36           -0.9675    13.1394    -3.0611 H       
  37 H37           -0.2106    12.6424    -5.5993 H       
  38 H38            1.4117    12.2227    -5.7195 H       
  39 H39           -0.5876    14.2961    -1.8689 H       
  40 H40            0.1921    15.9196    -0.1914 H       
  41 H41            1.2788    15.1348     1.8726 H       
  42 H42            1.5894    12.7250     2.2660 H       
@<TRIPOS>BOND
   1    1    2 1
   2    2    3 1
   3    2    6 2
   4    3    4 1
   5    4    5 2
   6    4    9 1
   7    5    6 1
   8    5    7 1
   9    6   28 1
  10    7    8 2
  11    7   29 1
  12    8    9 1
  13    8   10 1
  14    9   30 1
  15   10   11 am
  16   10   13 2
  17   11   12 1
  18   11   31 1
  19   12   14 1
  20   12   18 1
  21   12   32 1
  22   14   15 1
  23   14   33 1
  24   14   34 1
  25   15   16 ar
  26   15   27 ar
  27   16   17 1
  28   16   24 ar
  29   17   18 am
  30   17   20 1
  31   18   19 2
  32   20   21 1
  33   20   35 1
  34   20   36 1
  35   21   22 2
  36   21   23 am
  37   23   37 1
  38   23   38 1
  39   24   25 ar
  40   24   39 1
  41   25   26 ar
  42   25   40 1
  43   26   27 ar
  44   26   41 1
  45   27   42 1

#	End of record

