#	Name: ASD01820083
#	Creating user name:	WinNT
#	Creation time:	15. 06. 2019 19:36

#	Modifying user name:	WinNT
#	Modification time:	15. 06. 2019 19:36

#	Program:	/corina/corina34_cracker 3.40 0067  02.08.2006

@<TRIPOS>MOLECULE
ASD01820083
 161  171    0    0    0
SMALL
NO_CHARGES


@<TRIPOS>ATOM
   1 C1            -0.0166     1.3765     0.0096 C.ar    
   2 C2             0.0021    -0.0041     0.0020 C.ar    
   3 C3             1.2059    -0.6838    -0.0135 C.ar    
   4 C4             2.3956     0.0197    -0.0069 C.ar    
   5 C5             2.3845     1.4067     0.0159 C.ar    
   6 C6             1.1748     2.0954     0.0021 C.ar    
   7 N7             3.6001     2.1025     0.0986 N.am    
   8 C8             3.8404     2.9139     1.2055 C.ar    
   9 C9             3.0004     3.9974     1.4851 C.ar    
  10 C10            1.9012     4.3454     0.5751 C.2     
  11 N11            1.1237     3.4843    -0.0609 N.am    
  12 C12            4.9158     2.6411     2.0407 C.ar    
  13 C13            5.1376     3.4196     3.1593 C.ar    
  14 C14            4.2899     4.4738     3.4571 C.ar    
  15 C15            3.2265     4.7665     2.6306 C.ar    
  16 O16            1.6867     5.5278     0.3909 O.2     
  17 C17            4.5218     1.9873    -0.8780 C.2     
  18 O18            4.3034     1.2781    -1.8374 O.2     
  19 C19            5.8237     2.7397    -0.7779 C.3     
  20 N20            6.6496     2.4482    -1.9572 N.3     
  21 C21            7.8164     3.3380    -2.0155 C.3     
  22 C22            8.5715     3.1060    -3.3262 C.3     
  23 C23            9.0176     1.6432    -3.4005 C.3     
  24 C24            7.7886     0.7367    -3.2890 C.3     
  25 C25            7.0562     1.0374    -1.9794 C.3     
  26 C26            9.7202     1.3901    -4.7359 C.3     
  27 N27           10.2512     0.0249    -4.7573 N.pl3   
  28 C28            9.5862    -1.0793    -5.2017 C.2     
  29 C29           38.1104   -14.4782   -20.1722 C.ar    
  30 C30           37.2376   -13.4142   -20.2842 C.ar    
  31 C31           36.9408   -12.6380   -19.1793 C.ar    
  32 C32           37.5300   -12.9183   -17.9608 C.ar    
  33 C33           38.4197   -13.9762   -17.8443 C.ar    
  34 C34           38.6989   -14.7782   -18.9474 C.ar    
  35 N35           39.0658   -14.1992   -16.6190 N.am    
  36 C36           40.4551   -14.1096   -16.5613 C.ar    
  37 C37           41.2523   -14.9596   -17.3356 C.ar    
  38 C38           40.6425   -16.0114   -18.1597 C.2     
  39 N39           39.5192   -15.8977   -18.8499 N.am    
  40 C40           41.0521   -13.1656   -15.7361 C.ar    
  41 C41           42.4273   -13.0475   -15.7022 C.ar    
  42 C42           43.2193   -13.8659   -16.4909 C.ar    
  43 C43           42.6429   -14.8172   -17.3046 C.ar    
  44 O44           41.2204   -17.0797   -18.2125 O.2     
  45 C45           38.3531   -14.4952   -15.5140 C.2     
  46 O46           37.1441   -14.5705   -15.5743 O.2     
  47 C47           39.0585   -14.7326   -14.2036 C.3     
  48 N48           38.0678   -15.0350   -13.1620 N.3     
  49 C49           38.7221   -15.5025   -11.9332 C.3     
  50 C50           37.6596   -15.9448   -10.9245 C.3     
  51 C51           36.7341   -14.7648   -10.6150 C.3     
  52 C52           36.1028   -14.2660   -11.9178 C.3     
  53 C53           37.2104   -13.8725   -12.8977 C.3     
  54 C54           10.3997    -2.1458    -5.0628 C.2     
  55 C55           11.6113    -1.6831    -4.5124 C.2     
  56 C56           11.4942    -0.3506    -4.3414 C.2     
  57 C57           12.8187    -2.5221    -4.1816 C.3     
  58 C58           13.7458    -2.5832    -5.3972 C.3     
  59 C59           14.9532    -3.4222    -5.0664 C.2     
  60 O60           15.0614    -3.9221    -3.9667 O.2     
  61 N61           15.9126    -3.6171    -5.9927 N.am    
  62 C62           17.0863    -4.4327    -5.6711 C.3     
  63 C63           18.0135    -4.4938    -6.8867 C.3     
  64 N64           19.1872    -5.3095    -6.5651 N.am    
  65 C65           20.1466    -5.5043    -7.4914 C.2     
  66 O66           20.0382    -5.0035    -8.5933 O.2     
  67 C67           21.3326    -6.3285    -7.1664 C.ar    
  68 C68           22.3261    -6.5303    -8.1255 C.ar    
  69 C69           21.4600    -6.8989    -5.8992 C.ar    
  70 C70           22.5644    -7.6658    -5.5965 C.ar    
  71 C71           23.5553    -7.8720    -6.5573 C.ar    
  72 C72           23.4305    -7.2972    -7.8229 C.ar    
  73 C73           24.7420    -8.6949    -6.2319 C.2     
  74 O74           24.8533    -9.1910    -5.1281 O.2     
  75 N75           25.6990    -8.8940    -7.1598 N.am    
  76 C76           26.8735    -9.7084    -6.8378 C.3     
  77 C77           27.7974    -9.7750    -8.0555 C.3     
  78 N78           28.9718   -10.5894    -7.7334 N.am    
  79 C79           29.9288   -10.7885    -8.6613 C.2     
  80 O80           29.8177   -10.2934    -9.7629 O.2     
  81 C81           31.1369   -11.6262    -8.3301 C.3     
  82 C82           32.0608   -11.6928    -9.5478 C.3     
  83 C83           33.2689   -12.5306    -9.2165 C.2     
  84 C84           33.6985   -13.6062    -9.9035 C.2     
  85 N85           34.8199   -14.0622    -9.2646 N.pl3   
  86 C86           35.0367   -13.2487    -8.2087 C.2     
  87 N87           34.1080   -12.3321    -8.1891 N.2     
  88 C88           35.6331   -15.2170    -9.6536 C.3     
  89 H89           -0.9607     1.9010     0.0169 H       
  90 H90           -0.9269    -0.5549     0.0086 H       
  91 H91            1.2167    -1.7636    -0.0305 H       
  92 H92            3.3358    -0.5116    -0.0190 H       
  93 H93            0.4415     3.8641    -0.6366 H       
  94 H94            5.5791     1.8192     1.8152 H       
  95 H95            5.9760     3.2052     3.8055 H       
  96 H96            4.4629     5.0692     4.3414 H       
  97 H97            2.5681     5.5891     2.8679 H       
  98 H98            5.6222     3.8098    -0.7308 H       
  99 H99            6.3540     2.4299     0.1226 H       
 100 H100           7.4849     4.3752    -1.9660 H       
 101 H101           8.4762     3.1272    -1.1739 H       
 102 H102           7.9165     3.3299    -4.1681 H       
 103 H103           9.4462     3.7555    -3.3621 H       
 104 H104           9.7035     1.4294    -2.5808 H       
 105 H105           7.1213     0.9233    -4.1304 H       
 106 H106           8.1040    -0.3067    -3.2983 H       
 107 H107           7.7196     0.8373    -1.1380 H       
 108 H108           6.1726     0.4036    -1.9036 H       
 109 H109           9.0074     1.5155    -5.5509 H       
 110 H110          10.5384     2.1001    -4.8563 H       
 111 H111           8.5812    -1.0968    -5.5966 H       
 112 H112          38.3340   -15.0833   -21.0383 H       
 113 H113          36.7853   -13.1873   -21.2384 H       
 114 H114          36.2493   -11.8132   -19.2681 H       
 115 H115          37.2980   -12.3118   -17.0979 H       
 116 H116          39.2357   -16.6833   -19.3432 H       
 117 H117          40.4401   -12.5231   -15.1204 H       
 118 H118          42.8879   -12.3133   -15.0579 H       
 119 H119          44.2936   -13.7576   -16.4683 H       
 120 H120          43.2649   -15.4521   -17.9181 H       
 121 H121          39.7447   -15.5731   -14.3074 H       
 122 H122          39.6176   -13.8393   -13.9249 H       
 123 H123          39.3740   -16.3443   -12.1666 H       
 124 H124          39.3136   -14.6927   -11.5061 H       
 125 H125          37.0765   -16.7638   -11.3456 H       
 126 H126          38.1449   -16.2770   -10.0069 H       
 127 H127          37.3102   -13.9602   -10.1580 H       
 128 H128          35.4953   -15.0587   -12.3545 H       
 129 H129          35.4759   -13.3990   -11.7097 H       
 130 H130          37.8091   -13.0703   -12.4661 H       
 131 H131          36.7644   -13.5303   -13.8316 H       
 132 H132          10.1655    -3.1669    -5.3252 H       
 133 H133          12.2516     0.3049    -3.9377 H       
 134 H134          13.3509    -2.0774    -3.3408 H       
 135 H135          12.4993    -3.5302    -3.9173 H       
 136 H136          13.2136    -3.0280    -6.2381 H       
 137 H137          14.0653    -1.5752    -5.6615 H       
 138 H138          15.8260    -3.2173    -6.8722 H       
 139 H139          17.6185    -3.9880    -4.8302 H       
 140 H140          16.7669    -5.4408    -5.4068 H       
 141 H141          17.4813    -4.9386    -7.7276 H       
 142 H142          18.3329    -3.4858    -7.1510 H       
 143 H143          19.2738    -5.7093    -5.6856 H       
 144 H144          22.2294    -6.0858    -9.1050 H       
 145 H145          20.6933    -6.7391    -5.1555 H       
 146 H146          22.6631    -8.1070    -4.6157 H       
 147 H147          24.1974    -7.4567    -8.5664 H       
 148 H148          25.6102    -8.4981    -8.0408 H       
 149 H149          27.4079    -9.2601    -6.0002 H       
 150 H150          26.5546   -10.7152    -6.5681 H       
 151 H151          27.2629   -10.2233    -8.8930 H       
 152 H152          28.1163    -8.7682    -8.3251 H       
 153 H153          29.0606   -10.9853    -6.8524 H       
 154 H154          31.6714   -11.1779    -7.4925 H       
 155 H155          30.8180   -12.6331    -8.0604 H       
 156 H156          31.5263   -12.1411   -10.3853 H       
 157 H157          32.3797   -10.6860    -9.8174 H       
 158 H158          33.2452   -14.0282   -10.7883 H       
 159 H159          35.8467   -13.3393    -7.5001 H       
 160 H160          35.0018   -15.9565   -10.1462 H       
 161 H161          36.0851   -15.6588    -8.7656 H       
@<TRIPOS>BOND
   1    1    2 ar
   2    1    6 ar
   3    1   89 1
   4    2    3 ar
   5    2   90 1
   6    3    4 ar
   7    3   91 1
   8    4    5 ar
   9    4   92 1
  10    5    6 ar
  11    5    7 1
  12    6   11 1
  13    7    8 1
  14    7   17 am
  15    8    9 ar
  16    8   12 ar
  17    9   10 1
  18    9   15 ar
  19   10   11 am
  20   10   16 2
  21   11   93 1
  22   12   13 ar
  23   12   94 1
  24   13   14 ar
  25   13   95 1
  26   14   15 ar
  27   14   96 1
  28   15   97 1
  29   17   18 2
  30   17   19 1
  31   19   20 1
  32   19   98 1
  33   19   99 1
  34   20   21 1
  35   20   25 1
  36   21   22 1
  37   21  100 1
  38   21  101 1
  39   22   23 1
  40   22  102 1
  41   22  103 1
  42   23   24 1
  43   23   26 1
  44   23  104 1
  45   24   25 1
  46   24  105 1
  47   24  106 1
  48   25  107 1
  49   25  108 1
  50   26   27 1
  51   26  109 1
  52   26  110 1
  53   27   28 1
  54   27   56 1
  55   28   54 2
  56   28  111 1
  57   29   30 ar
  58   29   34 ar
  59   29  112 1
  60   30   31 ar
  61   30  113 1
  62   31   32 ar
  63   31  114 1
  64   32   33 ar
  65   32  115 1
  66   33   34 ar
  67   33   35 1
  68   34   39 1
  69   35   36 1
  70   35   45 am
  71   36   37 ar
  72   36   40 ar
  73   37   38 1
  74   37   43 ar
  75   38   39 am
  76   38   44 2
  77   39  116 1
  78   40   41 ar
  79   40  117 1
  80   41   42 ar
  81   41  118 1
  82   42   43 ar
  83   42  119 1
  84   43  120 1
  85   45   46 2
  86   45   47 1
  87   47   48 1
  88   47  121 1
  89   47  122 1
  90   48   49 1
  91   48   53 1
  92   49   50 1
  93   49  123 1
  94   49  124 1
  95   50   51 1
  96   50  125 1
  97   50  126 1
  98   51   52 1
  99   51   88 1
 100   51  127 1
 101   52   53 1
 102   52  128 1
 103   52  129 1
 104   53  130 1
 105   53  131 1
 106   54   55 1
 107   54  132 1
 108   55   56 2
 109   55   57 1
 110   56  133 1
 111   57   58 1
 112   57  134 1
 113   57  135 1
 114   58   59 1
 115   58  136 1
 116   58  137 1
 117   59   60 2
 118   59   61 am
 119   61   62 1
 120   61  138 1
 121   62   63 1
 122   62  139 1
 123   62  140 1
 124   63   64 1
 125   63  141 1
 126   63  142 1
 127   64   65 am
 128   64  143 1
 129   65   66 2
 130   65   67 1
 131   67   68 ar
 132   67   69 ar
 133   68   72 ar
 134   68  144 1
 135   69   70 ar
 136   69  145 1
 137   70   71 ar
 138   70  146 1
 139   71   72 ar
 140   71   73 1
 141   72  147 1
 142   73   74 2
 143   73   75 am
 144   75   76 1
 145   75  148 1
 146   76   77 1
 147   76  149 1
 148   76  150 1
 149   77   78 1
 150   77  151 1
 151   77  152 1
 152   78   79 am
 153   78  153 1
 154   79   80 2
 155   79   81 1
 156   81   82 1
 157   81  154 1
 158   81  155 1
 159   82   83 1
 160   82  156 1
 161   82  157 1
 162   83   84 2
 163   83   87 1
 164   84   85 1
 165   84  158 1
 166   85   86 1
 167   85   88 1
 168   86   87 2
 169   86  159 1
 170   88  160 1
 171   88  161 1

#	End of record

