#	Name: ASD01150371
#	Creating user name:	WinNT
#	Creation time:	15. 06. 2019 19:04

#	Modifying user name:	WinNT
#	Modification time:	15. 06. 2019 19:04

#	Program:	/corina/corina34_cracker 3.40 0067  02.08.2006

@<TRIPOS>MOLECULE
ASD01150371
  39   41    0    0    0
SMALL
NO_CHARGES


@<TRIPOS>ATOM
   1 C1            -0.0167     1.3773     0.0096 C.ar    
   2 C2             0.0021    -0.0041     0.0020 C.ar    
   3 C3             1.2070    -0.6829    -0.0127 C.ar    
   4 C4             2.3991     0.0168    -0.0203 C.ar    
   5 C5             2.3896     1.4025    -0.0132 C.ar    
   6 C6             1.1760     2.0872     0.0020 C.ar    
   7 N7             1.1598     3.4873     0.0088 N.am    
   8 C8             0.4907     4.1378     0.9769 C.2     
   9 N9             0.4539     5.4828     1.0135 N.am    
  10 C10            1.0952     6.2024     0.0695 C.2     
  11 C11            1.8292     5.4973    -0.9917 C.2     
  12 N12            1.8452     4.1901    -0.9892 N.2     
  13 O13            1.0662     7.4188     0.0957 O.2     
  14 C14           -0.2836     6.1660     2.0792 C.3     
  15 O15           -0.0914     3.5001     1.8335 O.2     
  16 C16            0.6349     6.4104     3.2487 C.ar    
  17 C17            1.3658     7.5816     3.3203 C.ar    
  18 C18            2.2084     7.8063     4.3926 C.ar    
  19 C19            2.3202     6.8587     5.3946 C.ar    
  20 C20            1.5884     5.6868     5.3224 C.ar    
  21 C21            0.7419     5.4657     4.2524 C.ar    
  22 Cl22           3.3787     7.1400     6.7415 Cl      
  23 O23            2.4846     6.1934    -1.9568 O.3     
  24 C24            3.1733     5.4325    -2.9512 C.3     
  25 O25            3.5611     2.0920    -0.0207 O.3     
  26 H26           -0.9591     1.9047     0.0169 H       
  27 H27           -0.9266    -0.5553     0.0079 H       
  28 H28            1.2166    -1.7629    -0.0178 H       
  29 H29            3.3381    -0.5166    -0.0314 H       
  30 H30           -0.6598     7.1190     1.7074 H       
  31 H31           -1.1203     5.5445     2.3981 H       
  32 H32            1.2787     8.3210     2.5379 H       
  33 H33            2.7796     8.7211     4.4483 H       
  34 H34            1.6753     4.9468     6.1042 H       
  35 H35            0.1707     4.5509     4.1959 H       
  36 H36            2.4623     4.7975    -3.4798 H       
  37 H37            3.6525     6.1089    -3.6590 H       
  38 H38            3.9303     4.8108    -2.4733 H       
  39 H39            3.8917     2.2960    -0.9062 H       
@<TRIPOS>BOND
   1    1    2 ar
   2    1    6 ar
   3    1   26 1
   4    2    3 ar
   5    2   27 1
   6    3    4 ar
   7    3   28 1
   8    4    5 ar
   9    4   29 1
  10    5    6 ar
  11    5   25 1
  12    6    7 1
  13    7    8 am
  14    7   12 1
  15    8    9 am
  16    8   15 2
  17    9   10 am
  18    9   14 1
  19   10   11 1
  20   10   13 2
  21   11   12 2
  22   11   23 1
  23   14   16 1
  24   14   30 1
  25   14   31 1
  26   16   17 ar
  27   16   21 ar
  28   17   18 ar
  29   17   32 1
  30   18   19 ar
  31   18   33 1
  32   19   20 ar
  33   19   22 1
  34   20   21 ar
  35   20   34 1
  36   21   35 1
  37   23   24 1
  38   24   36 1
  39   24   37 1
  40   24   38 1
  41   25   39 1

#	End of record

