#	Name: ASD03092638
#	Creating user name:	WinNT
#	Creation time:	15. 06. 2019 20:32

#	Modifying user name:	WinNT
#	Modification time:	15. 06. 2019 20:32

#	Program:	/corina/corina34_cracker 3.40 0067  02.08.2006

@<TRIPOS>MOLECULE
ASD03092638
  52   55    0    0    0
SMALL
NO_CHARGES


@<TRIPOS>ATOM
   1 C1             0.2250     1.3846    -1.2265 C.ar    
   2 C2             0.2887    -0.0219    -1.3007 C.ar    
   3 C3             1.2241    -0.7075    -0.4942 C.ar    
   4 C4             2.0424     0.0514     0.3406 C.ar    
   5 C5             1.9112     1.4315     0.3494 C.ar    
   6 N6             1.0328     2.0465    -0.4116 N.ar    
   7 N7            -1.2911     0.6232    -2.6980 N.2     
   8 N8            -0.7610     1.7727    -2.1000 N.pl3   
   9 C9            -0.6796    -0.4331    -2.2412 C.2     
  10 C10            1.3311    -2.1812    -0.5338 C.2     
  11 O11            0.3321    -2.8596    -0.6736 O.2     
  12 N12            2.5362    -2.7729    -0.4150 N.am    
  13 C13            2.8020    -6.8342    -0.2144 C.ar    
  14 N14            3.5655    -6.1847    -1.0701 N.ar    
  15 C15            3.5092    -4.8667    -1.1660 C.ar    
  16 C16            2.6272    -4.1670    -0.3464 C.ar    
  17 C17            1.8386    -4.8916     0.5438 C.ar    
  18 N18            1.9549    -6.2086     0.5782 N.ar    
  19 C19            0.8674    -4.1855     1.4545 C.3     
  20 C20            4.3867    -4.1332    -2.1473 C.3     
  21 C21            2.7980     2.2476     1.2542 C.3     
  22 C22           -0.9654    -1.8570    -2.6435 C.3     
  23 C23           -1.1668     3.0912    -2.3492 C.ar    
  24 C24           -1.5679     3.4651    -3.6249 C.ar    
  25 C25           -1.9674     4.7639    -3.8697 C.ar    
  26 C26           -1.9676     5.6954    -2.8415 C.ar    
  27 C27           -1.5670     5.3224    -1.5667 C.ar    
  28 C28           -1.1732     4.0224    -1.3191 C.ar    
  29 O29           -2.3602     6.9743    -3.0834 O.3     
  30 C30           -2.3357     7.8804    -1.9787 C.3     
  31 H31            2.7715    -0.4311     0.9747 H       
  32 H32            3.3405    -2.2319    -0.3771 H       
  33 H33            2.8692    -7.9109    -0.1643 H       
  34 H34           -0.1314    -4.2233     1.0198 H       
  35 H35            0.8590    -4.6767     2.4275 H       
  36 H36            1.1723    -3.1460     1.5749 H       
  37 H37            3.8665    -4.0398    -3.1006 H       
  38 H38            4.6150    -3.1406    -1.7591 H       
  39 H39            5.3133    -4.6888    -2.2919 H       
  40 H40            3.7111     2.5157     0.7226 H       
  41 H41            2.2736     3.1544     1.5555 H       
  42 H42            3.0509     1.6631     2.1388 H       
  43 H43           -1.6525    -2.3062    -1.9265 H       
  44 H44           -1.4157    -1.8707    -3.6361 H       
  45 H45           -0.0345    -2.4239    -2.6590 H       
  46 H46           -1.5671     2.7403    -4.4256 H       
  47 H47           -2.2794     5.0548    -4.8619 H       
  48 H48           -1.5674     6.0480    -0.7667 H       
  49 H49           -0.8656     3.7311    -0.3257 H       
  50 H50           -2.9975     7.5144    -1.1938 H       
  51 H51           -1.3193     7.9543    -1.5919 H       
  52 H52           -2.6715     8.8638    -2.3079 H       
@<TRIPOS>BOND
   1    1    2 ar
   2    1    6 ar
   3    1    8 1
   4    2    3 ar
   5    2    9 1
   6    3    4 ar
   7    3   10 1
   8    4    5 ar
   9    4   31 1
  10    5    6 ar
  11    5   21 1
  12    7    8 1
  13    7    9 2
  14    8   23 1
  15    9   22 1
  16   10   11 2
  17   10   12 am
  18   12   16 1
  19   12   32 1
  20   13   14 ar
  21   13   18 ar
  22   13   33 1
  23   14   15 ar
  24   15   16 ar
  25   15   20 1
  26   16   17 ar
  27   17   18 ar
  28   17   19 1
  29   19   34 1
  30   19   35 1
  31   19   36 1
  32   20   37 1
  33   20   38 1
  34   20   39 1
  35   21   40 1
  36   21   41 1
  37   21   42 1
  38   22   43 1
  39   22   44 1
  40   22   45 1
  41   23   24 ar
  42   23   28 ar
  43   24   25 ar
  44   24   46 1
  45   25   26 ar
  46   25   47 1
  47   26   27 ar
  48   26   29 1
  49   27   28 ar
  50   27   48 1
  51   28   49 1
  52   29   30 1
  53   30   50 1
  54   30   51 1
  55   30   52 1

#	End of record

