#	Name: ASD01411189
#	Creating user name:	WinNT
#	Creation time:	15. 06. 2019 19:19

#	Modifying user name:	WinNT
#	Modification time:	15. 06. 2019 19:19

#	Program:	/corina/corina34_cracker 3.40 0067  02.08.2006

@<TRIPOS>MOLECULE
ASD01411189
  72   75    0    0    0
SMALL
NO_CHARGES


@<TRIPOS>ATOM
   1 C1             2.4330     4.8276    -2.2257 C.ar    
   2 C2             3.4561     4.8594    -3.1630 C.ar    
   3 C3             4.5294     4.0020    -3.0211 C.ar    
   4 N4             4.5913     3.1578    -2.0092 N.ar    
   5 C5             3.6360     3.0979    -1.0958 C.ar    
   6 C6             2.5274     3.9307    -1.1756 C.ar    
   7 C7             4.5560    -0.0155    -0.2317 C.ar    
   8 C8             4.7871     1.3466    -0.0811 C.ar    
   9 O9             3.7404     2.2144    -0.0715 O.3     
  10 C10            5.6112    -0.9051    -0.2424 C.ar    
  11 C11            6.9128    -0.4441    -0.1020 C.ar    
  12 C12            7.1529     0.9301     0.0499 C.ar    
  13 C13            6.0780     1.8223     0.0594 C.ar    
  14 N14            7.9781    -1.3432    -0.1119 N.am    
  15 C15            8.4651    -1.8880    -1.3817 C.3     
  16 C16            8.5600    -1.7114     1.0466 C.2     
  17 C17            7.9903    -1.2391     2.3594 C.3     
  18 O18            9.5422    -2.4228     1.0327 O.2     
  19 C19            8.9461    -1.6129     3.4942 C.3     
  20 C20            6.6332    -1.9050     2.5955 C.3     
  21 C21            6.8103    -3.4242     2.6335 C.3     
  22 C22            7.7660    -3.7980     3.7682 C.3     
  23 C23            9.1231    -3.1322     3.5322 C.3     
  24 C24            7.9431    -5.3173     3.8062 C.3     
  25 C25            9.5449    -0.9920    -1.9315 C.ar    
  26 C26           10.8664    -1.2171    -1.5934 C.ar    
  27 C27            9.2124     0.0497    -2.7774 C.ar    
  28 C28           10.2040     0.8744    -3.2838 C.ar    
  29 C29           11.5336     0.6514    -2.9390 C.ar    
  30 C30           11.8606    -0.3980    -2.0952 C.ar    
  31 O31            9.8786     1.8994    -4.1163 O.3     
  32 C32            8.4941     2.0682    -4.4271 C.3     
  33 O33           12.5104     1.4581    -3.4334 O.3     
  34 C34           13.8526     1.1697    -3.0366 C.3     
  35 C35            1.4417     3.8589    -0.1329 C.3     
  36 F36            0.4430     4.7911    -0.4346 F       
  37 F37            0.8910     2.5729    -0.1209 F       
  38 F38            1.9832     4.1461     1.1246 F       
  39 C39            8.5315     1.4292     0.2001 C.2     
  40 O40            9.4640     0.6501     0.1926 O.2     
  41 O41            8.7579     2.7496     0.3458 O.3     
  42 H42            1.5848     5.4907    -2.3112 H       
  43 H43            3.4132     5.5472    -3.9946 H       
  44 H44            5.3279     4.0225    -3.7480 H       
  45 H45            3.5450    -0.3804    -0.3365 H       
  46 H46            5.4237    -1.9622    -0.3598 H       
  47 H47            6.2549     2.8814     0.1759 H       
  48 H48            8.8702    -2.8864    -1.2172 H       
  49 H49            7.6412    -1.9429    -2.0933 H       
  50 H50            7.8642    -0.1567     2.3324 H       
  51 H51            9.9129    -1.1385     3.3260 H       
  52 H52            8.5340    -1.2713     4.4437 H       
  53 H53            6.2211    -1.5633     3.5450 H       
  54 H54            5.9523    -1.6386     1.7871 H       
  55 H55            5.8434    -3.8986     2.8016 H       
  56 H56            7.2223    -3.7658     1.6839 H       
  57 H57            7.3539    -3.4564     4.7177 H       
  58 H58            9.5352    -3.4738     2.5826 H       
  59 H59            9.8040    -3.3985     4.3406 H       
  60 H60            8.3552    -5.6589     2.8567 H       
  61 H61            8.6240    -5.5836     4.6146 H       
  62 H62            6.9763    -5.7917     3.9744 H       
  63 H63           11.1226    -2.0344    -0.9356 H       
  64 H64            8.1797     0.2204    -3.0437 H       
  65 H65           12.8917    -0.5732    -1.8260 H       
  66 H66            7.9349     2.2479    -3.5089 H       
  67 H67            8.3734     2.9185    -5.0984 H       
  68 H68            8.1178     1.1669    -4.9112 H       
  69 H69           14.1167     0.1612    -3.3547 H       
  70 H70           14.5305     1.8863    -3.5005 H       
  71 H71           13.9343     1.2418    -1.9521 H       
  72 H72            9.6787     3.0293     0.4409 H       
@<TRIPOS>BOND
   1    1    2 ar
   2    1    6 ar
   3    1   42 1
   4    2    3 ar
   5    2   43 1
   6    3    4 ar
   7    3   44 1
   8    4    5 ar
   9    5    6 ar
  10    5    9 1
  11    6   35 1
  12    7    8 ar
  13    7   10 ar
  14    7   45 1
  15    8    9 1
  16    8   13 ar
  17   10   11 ar
  18   10   46 1
  19   11   12 ar
  20   11   14 1
  21   12   13 ar
  22   12   39 1
  23   13   47 1
  24   14   15 1
  25   14   16 am
  26   15   25 1
  27   15   48 1
  28   15   49 1
  29   16   18 2
  30   16   17 1
  31   17   19 1
  32   17   20 1
  33   17   50 1
  34   19   23 1
  35   19   51 1
  36   19   52 1
  37   20   21 1
  38   20   53 1
  39   20   54 1
  40   21   22 1
  41   21   55 1
  42   21   56 1
  43   22   23 1
  44   22   24 1
  45   22   57 1
  46   23   58 1
  47   23   59 1
  48   24   60 1
  49   24   61 1
  50   24   62 1
  51   25   26 ar
  52   25   27 ar
  53   26   30 ar
  54   26   63 1
  55   27   28 ar
  56   27   64 1
  57   28   29 ar
  58   28   31 1
  59   29   30 ar
  60   29   33 1
  61   30   65 1
  62   31   32 1
  63   32   66 1
  64   32   67 1
  65   32   68 1
  66   33   34 1
  67   34   69 1
  68   34   70 1
  69   34   71 1
  70   35   36 1
  71   35   37 1
  72   35   38 1
  73   39   40 2
  74   39   41 1
  75   41   72 1

#	End of record

