#	Name: ASD01883849
#	Creating user name:	WinNT
#	Creation time:	15. 06. 2019 19:47

#	Modifying user name:	WinNT
#	Modification time:	15. 06. 2019 19:47

#	Program:	/corina/corina34_cracker 3.40 0067  02.08.2006

@<TRIPOS>MOLECULE
ASD01883849
  45   46    0    0    0
SMALL
NO_CHARGES


@<TRIPOS>ATOM
   1 C1            -0.0170     1.4020     0.0098 C.2     
   2 C2             0.0021    -0.0041     0.0020 C.2     
   3 C3            -1.2244    -0.6972     0.0105 C.2     
   4 C4            -2.3887    -0.0097     0.0258 C.2     
   5 N5            -2.4081     1.3481     0.0328 N.am    
   6 C6            -1.2689     2.0648     0.0312 C.2     
   7 O7            -1.3144     3.2832     0.0377 O.2     
   8 C8            -3.6955     2.0471     0.0484 C.3     
   9 C9             1.2047     2.1489     0.0021 C.1     
  10 N10            2.1739     2.7414    -0.0040 N.1     
  11 C11            1.2833    -0.7401    -0.0152 C.ar    
  12 C12           -4.1301     2.2832     1.4962 C.3     
  13 C13           -5.4746     3.0132     1.5125 C.3     
  14 C14           -5.9693     3.1388     2.9549 C.3     
  15 C15           -5.3047     4.4085     0.9083 C.3     
  16 C16            1.6472    -1.5375     1.0722 C.ar    
  17 C17            2.8424    -2.2229     1.0527 C.ar    
  18 C18            3.6856    -2.1218    -0.0465 C.ar    
  19 C19            3.3275    -1.3285    -1.1314 C.ar    
  20 C20            2.1311    -0.6446    -1.1217 C.ar    
  21 O21            4.8625    -2.7988    -0.0617 O.3     
  22 C22            5.1681    -3.5945     1.0852 C.3     
  23 Cl23           4.3858    -1.2050    -2.5020 Cl      
  24 C24            6.5233    -4.2764     0.8865 C.3     
  25 H25           -1.2348    -1.7771     0.0044 H       
  26 H26           -3.3228    -0.5518     0.0322 H       
  27 H27           -3.5949     3.0052    -0.4616 H       
  28 H28           -4.4442     1.4409    -0.4615 H       
  29 H29           -4.2307     1.3251     2.0062 H       
  30 H30           -3.3813     2.8893     2.0061 H       
  31 H31           -6.2011     2.4497     0.9270 H       
  32 H32           -5.2428     3.7023     3.5404 H       
  33 H33           -6.9271     3.6589     2.9665 H       
  34 H34           -6.0904     2.1448     3.3853 H       
  35 H35           -4.5782     4.9720     1.4938 H       
  36 H36           -4.9522     4.3190    -0.1193 H       
  37 H37           -6.2625     4.9286     0.9199 H       
  38 H38            0.9926    -1.6166     1.9276 H       
  39 H39            3.1242    -2.8393     1.8935 H       
  40 H40            1.8531    -0.0289    -1.9644 H       
  41 H41            5.2080    -2.9577     1.9690 H       
  42 H42            4.3960    -4.3523     1.2180 H       
  43 H43            6.4834    -4.9131     0.0027 H       
  44 H44            7.2954    -3.5185     0.7538 H       
  45 H45            6.7564    -4.8833     1.7614 H       
@<TRIPOS>BOND
   1    1    2 2
   2    1    9 1
   3    1    6 1
   4    2    3 1
   5    2   11 1
   6    3    4 2
   7    3   25 1
   8    4    5 1
   9    4   26 1
  10    5    6 am
  11    5    8 1
  12    6    7 2
  13    8   12 1
  14    8   27 1
  15    8   28 1
  16    9   10 3
  17   11   16 ar
  18   11   20 ar
  19   12   13 1
  20   12   29 1
  21   12   30 1
  22   13   14 1
  23   13   15 1
  24   13   31 1
  25   14   32 1
  26   14   33 1
  27   14   34 1
  28   15   35 1
  29   15   36 1
  30   15   37 1
  31   16   17 ar
  32   16   38 1
  33   17   18 ar
  34   17   39 1
  35   18   19 ar
  36   18   21 1
  37   19   20 ar
  38   19   23 1
  39   20   40 1
  40   21   22 1
  41   22   24 1
  42   22   41 1
  43   22   42 1
  44   24   43 1
  45   24   44 1
  46   24   45 1

#	End of record

