#	Name: ASD01812953
#	Creating user name:	WinNT
#	Creation time:	15. 06. 2019 19:29

#	Modifying user name:	WinNT
#	Modification time:	15. 06. 2019 19:29

#	Program:	/corina/corina34_cracker 3.40 0067  02.08.2006

@<TRIPOS>MOLECULE
ASD01812953
  55   59    0    0    0
SMALL
NO_CHARGES


@<TRIPOS>ATOM
   1 N1            -0.0158     1.3147     0.0093 N.ar    
   2 C2             0.0021    -0.0041     0.0020 C.ar    
   3 C3             1.1989    -0.7033    -0.0127 C.ar    
   4 C4             2.3829    -0.0013    -0.0202 C.ar    
   5 C5             2.3448     1.3978    -0.0128 C.ar    
   6 C6             1.0955     2.0332     0.0025 C.ar    
   7 C7             3.8373    -0.3889    -0.0363 C.3     
   8 N8             4.5955     0.8684    -0.0373 N.am    
   9 C9             3.7280     1.8961    -0.0237 C.2     
  10 C10            6.0558     0.9844    -0.0504 C.3     
  11 C11            6.5432     1.0311    -1.4757 C.ar    
  12 O12            1.0255     3.3856     0.0100 O.3     
  13 O13            4.0429     3.0706    -0.0212 O.2     
  14 C14            6.6711     2.2481    -2.1206 C.ar    
  15 C15            7.1170     2.2969    -3.4257 C.ar    
  16 C16            7.4387     1.1168    -4.0940 C.ar    
  17 C17            7.3078    -0.1066    -3.4392 C.ar    
  18 C18            6.8664    -0.1429    -2.1321 C.ar    
  19 C19           -0.2795     3.9677     0.0251 C.3     
  20 C20           -0.1576     5.4928     0.0317 C.3     
  21 O21            0.4061     5.9406    -1.2066 O.3     
  22 C22           -0.5326     6.7798    -1.8980 C.3     
  23 C23           -1.4572     7.3488    -0.7925 C.3     
  24 C24           -1.5578     6.1295     0.1641 C.3     
  25 C25            7.9179     1.1627    -5.4968 C.ar    
  26 C26            8.2429    -0.0150    -6.1754 C.ar    
  27 C27            8.6847     0.0822    -7.4826 C.ar    
  28 N28            8.7845     1.2778    -8.0435 N.ar    
  29 C29            8.4700     2.3702    -7.3764 C.ar    
  30 N30            8.0404     2.3262    -6.1325 N.ar    
  31 C31            8.6009     3.7076    -8.0586 C.3     
  32 H32           -0.9309    -0.5480     0.0080 H       
  33 H33            1.2023    -1.7833    -0.0178 H       
  34 H34            4.0797    -0.9721     0.8522 H       
  35 H35            4.0624    -0.9631    -0.9351 H       
  36 H36            6.3524     1.8979     0.4651 H       
  37 H37            6.4932     0.1235     0.4552 H       
  38 H38            6.4213     3.1619    -1.6019 H       
  39 H39            7.2162     3.2476    -3.9284 H       
  40 H40            7.5553    -1.0241    -3.9523 H       
  41 H41            6.7688    -1.0899    -1.6222 H       
  42 H42           -0.8289     3.6509    -0.8614 H       
  43 H43           -0.8123     3.6419     0.9185 H       
  44 H44            0.4741     5.8096     0.8615 H       
  45 H45           -0.0114     7.5893    -2.4091 H       
  46 H46           -1.1118     6.1925    -2.6105 H       
  47 H47           -0.9957     8.2016    -0.2948 H       
  48 H48           -2.4347     7.6134    -1.1957 H       
  49 H49           -2.3315     5.4378    -0.1690 H       
  50 H50           -1.7409     6.4542     1.1884 H       
  51 H51            8.1518    -0.9762    -5.6915 H       
  52 H52            8.9455    -0.8061    -8.0388 H       
  53 H53            7.6634     3.9548    -8.5566 H       
  54 H54            8.8312     4.4727    -7.3172 H       
  55 H55            9.4029     3.6627    -8.7954 H       
@<TRIPOS>BOND
   1    1    2 ar
   2    1    6 ar
   3    2    3 ar
   4    2   32 1
   5    3    4 ar
   6    3   33 1
   7    4    7 1
   8    4    5 ar
   9    5    6 ar
  10    5    9 1
  11    6   12 1
  12    7    8 1
  13    7   34 1
  14    7   35 1
  15    8    9 am
  16    8   10 1
  17    9   13 2
  18   10   11 1
  19   10   36 1
  20   10   37 1
  21   11   14 ar
  22   11   18 ar
  23   12   19 1
  24   14   15 ar
  25   14   38 1
  26   15   16 ar
  27   15   39 1
  28   16   17 ar
  29   16   25 1
  30   17   18 ar
  31   17   40 1
  32   18   41 1
  33   19   20 1
  34   19   42 1
  35   19   43 1
  36   20   21 1
  37   20   24 1
  38   20   44 1
  39   21   22 1
  40   22   23 1
  41   22   45 1
  42   22   46 1
  43   23   24 1
  44   23   47 1
  45   23   48 1
  46   24   49 1
  47   24   50 1
  48   25   26 ar
  49   25   30 ar
  50   26   27 ar
  51   26   51 1
  52   27   28 ar
  53   27   52 1
  54   28   29 ar
  55   29   30 ar
  56   29   31 1
  57   31   53 1
  58   31   54 1
  59   31   55 1

#	End of record

