#	Name: ASD03081011
#	Creating user name:	WinNT
#	Creation time:	15. 06. 2019 20:26

#	Modifying user name:	WinNT
#	Modification time:	15. 06. 2019 20:26

#	Program:	/corina/corina34_cracker 3.40 0067  02.08.2006

@<TRIPOS>MOLECULE
ASD03081011
  21   21    0    0    0
SMALL
NO_CHARGES


@<TRIPOS>ATOM
   1 C1            -0.0180     1.4730     0.0101 C.2     
   2 C2             0.0021    -0.0041     0.0020 C.ar    
   3 C3             1.2190    -0.6889    -0.0133 C.ar    
   4 C4             1.2304    -2.0681    -0.0203 C.ar    
   5 C5             0.0396    -2.7731    -0.0127 C.ar    
   6 C6            -1.1695    -2.1010     0.0020 C.ar    
   7 C7            -1.1954    -0.7216     0.0154 C.ar    
   8 O8             1.0256     2.0946     0.0035 O.2     
   9 O9            -1.1936     2.1307     0.0193 O.3     
  10 S10            2.7647    -2.9343    -0.0396 S.o2    
  11 O11            2.4558    -4.1807    -0.6481 O.2     
  12 O12            3.6721    -2.0264    -0.6492 O.2     
  13 C13            3.1759    -3.1656     1.7119 C.3     
  14 F14            2.1656    -3.9067     2.3342 F       
  15 F15            4.3906    -3.8514     1.8191 F       
  16 F16            3.2888    -1.9173     2.3333 F       
  17 H17            2.1490    -0.1399    -0.0199 H       
  18 H18            0.0543    -3.8530    -0.0186 H       
  19 H19           -2.0952    -2.6573     0.0071 H       
  20 H20           -2.1399    -0.1982     0.0318 H       
  21 H21           -1.1561     3.0969     0.0244 H       
@<TRIPOS>BOND
   1    1    2 1
   2    1    8 2
   3    1    9 1
   4    2    3 ar
   5    2    7 ar
   6    3    4 ar
   7    3   17 1
   8    4    5 ar
   9    4   10 1
  10    5    6 ar
  11    5   18 1
  12    6    7 ar
  13    6   19 1
  14    7   20 1
  15    9   21 1
  16   10   11 2
  17   10   12 2
  18   10   13 1
  19   13   14 1
  20   13   15 1
  21   13   16 1

#	End of record

