#	Name: ASD02038197
#	Creating user name:	WinNT
#	Creation time:	15. 06. 2019 20:16

#	Modifying user name:	WinNT
#	Modification time:	15. 06. 2019 20:16

#	Program:	/corina/corina34_cracker 3.40 0067  02.08.2006

@<TRIPOS>MOLECULE
ASD02038197
  44   46    0    0    0
SMALL
NO_CHARGES


@<TRIPOS>ATOM
   1 C1            -0.0186     1.5367     0.0262 C.3     
   2 C2             0.0022    -0.0041     0.0103 C.3     
   3 N3             1.4039     1.9085    -0.0011 N.am    
   4 C4             2.1492     0.7959    -0.0285 C.2     
   5 N5             1.4342    -0.3368    -0.0242 N.am    
   6 C6             1.9904    -1.6919    -0.0499 C.3     
   7 C7             2.2161    -2.1778     1.3832 C.3     
   8 C8             2.7970    -3.5930     1.3564 C.3     
   9 O9             2.8991    -4.0914     2.6918 O.3     
  10 C10            3.4005    -5.3460     2.8458 C.ar    
  11 C11            3.5268    -5.8913     4.1148 C.ar    
  12 C12            3.7804    -6.0824     1.7336 C.ar    
  13 C13            4.2897    -7.3568     1.8901 C.ar    
  14 C14            4.4218    -7.8998     3.1595 C.ar    
  15 C15            4.0362    -7.1657     4.2713 C.ar    
  16 C16            1.9004     3.2175     0.0012 C.ar    
  17 C17            1.0266     4.2929    -0.0894 C.ar    
  18 C18            1.5189     5.5833    -0.0865 C.ar    
  19 C19            2.8816     5.8050     0.0067 C.ar    
  20 C20            3.7545     4.7351     0.0971 C.ar    
  21 C21            3.2670     3.4429     0.0999 C.ar    
  22 Cl22           3.4972     7.4282     0.0095 Cl      
  23 O23            3.3646     0.8125    -0.0552 O.2     
  24 O24            3.1292    -1.3005     2.0454 O.3     
  25 O25            4.9228    -9.1545     3.3135 O.3     
  26 H26           -0.5316     1.9215    -0.8552 H       
  27 H27           -0.4925     1.9036     0.9366 H       
  28 H28           -0.4614    -0.4023     0.9128 H       
  29 H29           -0.5005    -0.3844    -0.8790 H       
  30 H30            1.2939    -2.3611    -0.5550 H       
  31 H31            2.9401    -1.6847    -0.5849 H       
  32 H32            1.2664    -2.1850     1.9182 H       
  33 H33            2.1434    -4.2431     0.7749 H       
  34 H34            3.7867    -3.5709     0.9002 H       
  35 H35            3.2272    -5.3194     4.9806 H       
  36 H36            3.6776    -5.6595     0.7451 H       
  37 H37            4.5849    -7.9305     1.0239 H       
  38 H38            4.1394    -7.5884     5.2598 H       
  39 H39           -0.0371     4.1204    -0.1625 H       
  40 H40            0.8397     6.4200    -0.1573 H       
  41 H41            4.8177     4.9108     0.1694 H       
  42 H42            3.9486     2.6082     0.1709 H       
  43 H43            3.9973    -1.2446     1.6231 H       
  44 H44            5.8840    -9.1844     3.4156 H       
@<TRIPOS>BOND
   1    1    2 1
   2    1    3 1
   3    1   26 1
   4    1   27 1
   5    2    5 1
   6    2   28 1
   7    2   29 1
   8    3    4 am
   9    3   16 1
  10    4    5 am
  11    4   23 2
  12    5    6 1
  13    6    7 1
  14    6   30 1
  15    6   31 1
  16    7    8 1
  17    7   24 1
  18    7   32 1
  19    8    9 1
  20    8   33 1
  21    8   34 1
  22    9   10 1
  23   10   11 ar
  24   10   12 ar
  25   11   15 ar
  26   11   35 1
  27   12   13 ar
  28   12   36 1
  29   13   14 ar
  30   13   37 1
  31   14   15 ar
  32   14   25 1
  33   15   38 1
  34   16   17 ar
  35   16   21 ar
  36   17   18 ar
  37   17   39 1
  38   18   19 ar
  39   18   40 1
  40   19   20 ar
  41   19   22 1
  42   20   21 ar
  43   20   41 1
  44   21   42 1
  45   24   43 1
  46   25   44 1

#	End of record

