#	Name: ASD01810706
#	Creating user name:	WinNT
#	Creation time:	15. 06. 2019 19:25

#	Modifying user name:	WinNT
#	Modification time:	15. 06. 2019 19:25

#	Program:	/corina/corina34_cracker 3.40 0067  02.08.2006

@<TRIPOS>MOLECULE
ASD01810706
  29   31    0    0    0
SMALL
NO_CHARGES


@<TRIPOS>ATOM
   1 C1             0.2544     2.4937    -1.0745 C.3     
   2 C2             0.3030     1.6035    -2.3349 C.3     
   3 N3            -0.4761     0.3929    -1.9683 N.3     
   4 C4            -0.0913     0.1241    -0.5588 C.3     
   5 C5            -0.0050     1.5205     0.0939 C.3     
   6 C6             1.3205     2.2792     0.0017 C.3     
   7 C7             2.5464     1.4914    -0.3824 C.ar    
   8 C8             3.2389     1.8111    -1.5356 C.ar    
   9 C9             4.3630     1.0905    -1.8899 C.ar    
  10 C10            4.7968     0.0452    -1.0875 C.ar    
  11 C11            4.1002    -0.2736     0.0691 C.ar    
  12 C12            2.9800     0.4537     0.4220 C.ar    
  13 O13            5.9021    -0.6655    -1.4341 O.3     
  14 C14            6.2906    -1.7278    -0.5608 C.3     
  15 H15           -0.2349     3.4640    -1.1601 H       
  16 H16           -0.1617     2.1136    -3.1787 H       
  17 H17            1.3327     1.3357    -2.5716 H       
  18 H18           -1.4675     0.5635    -2.0462 H       
  19 H19           -0.8528    -0.4797    -0.0654 H       
  20 H20            0.8768    -0.3752    -0.5176 H       
  21 H21           -0.7159     1.7521     0.8870 H       
  22 H22            1.4866     3.0885     0.7127 H       
  23 H23            2.9006     2.6247    -2.1601 H       
  24 H24            4.9034     1.3404    -2.7910 H       
  25 H25            4.4359    -1.0869     0.6954 H       
  26 H26            2.4401     0.2090     1.3247 H       
  27 H27            7.1850    -2.2119    -0.9529 H       
  28 H28            6.5001    -1.3253     0.4302 H       
  29 H29            5.4829    -2.4567    -0.4936 H       
@<TRIPOS>BOND
   1    1    2 1
   2    1    6 1
   3    1    5 1
   4    1   15 1
   5    2    3 1
   6    2   16 1
   7    2   17 1
   8    3    4 1
   9    3   18 1
  10    4    5 1
  11    4   19 1
  12    4   20 1
  13    5    6 1
  14    5   21 1
  15    6    7 1
  16    6   22 1
  17    7    8 ar
  18    7   12 ar
  19    8    9 ar
  20    8   23 1
  21    9   10 ar
  22    9   24 1
  23   10   11 ar
  24   10   13 1
  25   11   12 ar
  26   11   25 1
  27   12   26 1
  28   13   14 1
  29   14   27 1
  30   14   28 1
  31   14   29 1

#	End of record

