#	Name: ASD02500148
#	Creating user name:	WinNT
#	Creation time:	15. 06. 2019 20:22

#	Modifying user name:	WinNT
#	Modification time:	15. 06. 2019 20:22

#	Program:	/corina/corina34_cracker 3.40 0067  02.08.2006

@<TRIPOS>MOLECULE
ASD02500148
  66   70    0    0    0
SMALL
NO_CHARGES


@<TRIPOS>ATOM
   1 N1            -1.6334     0.7492    -1.1654 N.am    
   2 C2            -1.0808    -0.4998    -1.7083 C.3     
   3 C3             0.1862    -0.1689    -2.5066 C.3     
   4 N4             1.0499     0.6885    -1.6827 N.am    
   5 C5             0.4974     1.9374    -1.1397 C.3     
   6 C6            -0.7697     1.6065    -0.3414 C.3     
   7 C7            -2.9076     1.1047    -1.4231 C.2     
   8 O8            -3.3775     2.0998    -0.9061 O.2     
   9 N9            -3.6609     0.3571    -2.2538 N.am    
  10 C10            2.3256     0.3355    -1.4292 C.2     
  11 C11            3.2091     1.2496    -0.6807 C.ar    
  12 C12            4.1627     0.7351     0.2025 C.ar    
  13 C13            4.9853     1.5904     0.8993 C.ar    
  14 C14            4.8685     2.9667     0.7254 C.ar    
  15 C15            3.9195     3.4822    -0.1532 C.ar    
  16 C16            3.0982     2.6319    -0.8575 C.ar    
  17 O17            2.7485    -0.7365    -1.8174 O.2     
  18 S18            6.4799     5.0584     0.6416 S.o2    
  19 O19            5.4921     5.7299    -0.1283 O.2     
  20 O20            7.2853     5.7119     1.6128 O.2     
  21 N21            5.7012     3.8283     1.4309 N.am    
  22 N22            8.9813     3.5126     1.2560 N.ar    
  23 C23           10.0366     2.8669     1.6891 C.ar    
  24 C24           10.9404     2.2683     0.8137 C.ar    
  25 C25           10.7368     2.3461    -0.5346 C.ar    
  26 C26            9.6022     3.0400    -0.9960 C.ar    
  27 C27            9.3274     3.1621    -2.3673 C.ar    
  28 C28            8.2196     3.8417    -2.7737 C.ar    
  29 C29            7.3538     4.4173    -1.8463 C.ar    
  30 C30            7.5902     4.3190    -0.5096 C.ar    
  31 C31            8.7237     3.6258    -0.0509 C.ar    
  32 C32           -4.9892     0.7167    -2.5081 C.ar    
  33 C33           -5.9475    -0.2657    -2.7153 C.ar    
  34 C34           -7.2619     0.0942    -2.9668 C.ar    
  35 C35           -7.6170     1.4354    -3.0110 C.ar    
  36 C36           -6.6616     2.4120    -2.8049 C.ar    
  37 C37           -5.3513     2.0569    -2.5477 C.ar    
  38 O38           -8.2025    -0.8652    -3.1706 O.3     
  39 C39           -9.5371    -0.4219    -3.4245 C.3     
  40 H40           -0.8317    -1.1757    -0.8903 H       
  41 H41           -1.8140    -0.9696    -2.3639 H       
  42 H42            0.7139    -1.0900    -2.7538 H       
  43 H43           -0.0851     0.3571    -3.4220 H       
  44 H44            1.2306     2.4072    -0.4841 H       
  45 H45            0.2482     2.6133    -1.9578 H       
  46 H46           -1.2974     2.5277    -0.0943 H       
  47 H47           -0.4984     1.0806     0.5740 H       
  48 H48           -3.2823    -0.4302    -2.6755 H       
  49 H49            4.2535    -0.3325     0.3382 H       
  50 H50            5.7220     1.1935     1.5821 H       
  51 H51            3.8308     4.5504    -0.2854 H       
  52 H52            2.3656     3.0321    -1.5427 H       
  53 H53            5.8259     3.7089     2.3854 H       
  54 H54           10.2104     2.7973     2.7528 H       
  55 H55           11.8013     1.7437     1.2009 H       
  56 H56           11.4273     1.8884    -1.2274 H       
  57 H57            9.9910     2.7200    -3.0957 H       
  58 H58            8.0090     3.9351    -3.8289 H       
  59 H59            6.4821     4.9518    -2.1938 H       
  60 H60           -5.6693    -1.3087    -2.6809 H       
  61 H61           -8.6414     1.7159    -3.2070 H       
  62 H62           -6.9404     3.4548    -2.8401 H       
  63 H63           -4.6074     2.8220    -2.3818 H       
  64 H64           -9.8935     0.1622    -2.5760 H       
  65 H65           -9.5500     0.1963    -4.3222 H       
  66 H66          -10.1857    -1.2859    -3.5690 H       
@<TRIPOS>BOND
   1    1    2 1
   2    1    6 1
   3    1    7 am
   4    2    3 1
   5    2   40 1
   6    2   41 1
   7    3    4 1
   8    3   42 1
   9    3   43 1
  10    4    5 1
  11    4   10 am
  12    5    6 1
  13    5   44 1
  14    5   45 1
  15    6   46 1
  16    6   47 1
  17    7    8 2
  18    7    9 am
  19    9   32 1
  20    9   48 1
  21   10   11 1
  22   10   17 2
  23   11   12 ar
  24   11   16 ar
  25   12   13 ar
  26   12   49 1
  27   13   14 ar
  28   13   50 1
  29   14   15 ar
  30   14   21 1
  31   15   16 ar
  32   15   51 1
  33   16   52 1
  34   18   19 2
  35   18   20 2
  36   18   21 am
  37   18   30 1
  38   21   53 1
  39   22   23 ar
  40   22   31 ar
  41   23   24 ar
  42   23   54 1
  43   24   25 ar
  44   24   55 1
  45   25   26 ar
  46   25   56 1
  47   26   27 ar
  48   26   31 ar
  49   27   28 ar
  50   27   57 1
  51   28   29 ar
  52   28   58 1
  53   29   30 ar
  54   29   59 1
  55   30   31 ar
  56   32   33 ar
  57   32   37 ar
  58   33   34 ar
  59   33   60 1
  60   34   35 ar
  61   34   38 1
  62   35   36 ar
  63   35   61 1
  64   36   37 ar
  65   36   62 1
  66   37   63 1
  67   38   39 1
  68   39   64 1
  69   39   65 1
  70   39   66 1

#	End of record

