#	Name: ASD01912831
#	Creating user name:	WinNT
#	Creation time:	15. 06. 2019 20:00

#	Modifying user name:	WinNT
#	Modification time:	15. 06. 2019 20:00

#	Program:	/corina/corina34_cracker 3.40 0067  02.08.2006

@<TRIPOS>MOLECULE
ASD01912831
  42   45    0    0    0
SMALL
NO_CHARGES


@<TRIPOS>ATOM
   1 C1            -0.0165     1.3668     0.0096 C.2     
   2 N2             0.0021    -0.0041     0.0020 N.pl3   
   3 C3            -1.2025    -0.6917     0.0098 C.2     
   4 C4            -2.3631    -0.0490     0.0244 C.2     
   5 N5            -2.4362     1.3300     0.0325 N.am    
   6 C6            -1.3026     2.0665     0.0309 C.2     
   7 C7             2.0549     0.6112    -0.0143 C.2     
   8 N8             1.2243    -0.4045    -0.0118 N.2     
   9 O9            -1.3500     3.2834     0.0380 O.2     
  10 C10           -3.7417     1.9945     0.0485 C.3     
  11 C11            3.5593     0.5254    -0.0291 C.3     
  12 O12            4.0220     0.5049    -1.3810 O.3     
  13 C13            5.3653     0.4290    -1.5723 C.ar    
  14 C14            5.8837     0.4051    -2.8589 C.ar    
  15 C15            7.2495     0.3279    -3.0507 C.ar    
  16 C16            8.0998     0.2745    -1.9617 C.ar    
  17 C17            7.5857     0.2977    -0.6784 C.ar    
  18 C18            6.2209     0.3811    -0.4813 C.ar    
  19 C19           -4.1824     2.2181     1.4965 C.3     
  20 C20           -5.4724     3.0073     1.7285 C.3     
  21 C21           -5.4459     1.4967     1.9698 C.3     
  22 C22            1.3011     1.7836    -0.0008 C.2     
  23 C23            1.8130     3.2010     0.0015 C.3     
  24 H24           -1.1956    -1.7717     0.0036 H       
  25 H25           -3.2787    -0.6218     0.0296 H       
  26 H26           -3.6667     2.9552    -0.4609 H       
  27 H27           -4.4741     1.3689    -0.4617 H       
  28 H28            3.9777     1.3907     0.4850 H       
  29 H29            3.8762    -0.3864     0.4772 H       
  30 H30            5.2199     0.4464    -3.7099 H       
  31 H31            7.6535     0.3088    -4.0521 H       
  32 H32            9.1674     0.2141    -2.1138 H       
  33 H33            8.2519     0.2552     0.1706 H       
  34 H34            5.8198     0.3993     0.5213 H       
  35 H35           -3.3762     2.3479     2.2186 H       
  36 H36           -5.5151     3.6560     2.6033 H       
  37 H37           -6.0072     3.3672     0.8495 H       
  38 H38           -5.9632     0.8628     1.2496 H       
  39 H39           -5.4712     1.1516     3.0034 H       
  40 H40            1.9461     3.5376     1.0297 H       
  41 H41            2.7686     3.2431    -0.5212 H       
  42 H42            1.0945     3.8476    -0.5023 H       
@<TRIPOS>BOND
   1    1    2 1
   2    1   22 2
   3    1    6 1
   4    2    3 1
   5    2    8 1
   6    3    4 2
   7    3   24 1
   8    4    5 1
   9    4   25 1
  10    5    6 am
  11    5   10 1
  12    6    9 2
  13    7    8 2
  14    7   11 1
  15    7   22 1
  16   10   19 1
  17   10   26 1
  18   10   27 1
  19   11   12 1
  20   11   28 1
  21   11   29 1
  22   12   13 1
  23   13   14 ar
  24   13   18 ar
  25   14   15 ar
  26   14   30 1
  27   15   16 ar
  28   15   31 1
  29   16   17 ar
  30   16   32 1
  31   17   18 ar
  32   17   33 1
  33   18   34 1
  34   19   20 1
  35   19   21 1
  36   19   35 1
  37   20   21 1
  38   20   36 1
  39   20   37 1
  40   21   38 1
  41   21   39 1
  42   22   23 1
  43   23   40 1
  44   23   41 1
  45   23   42 1

#	End of record

