#	Name: ASD01918547
#	Creating user name:	WinNT
#	Creation time:	15. 06. 2019 20:11

#	Modifying user name:	WinNT
#	Modification time:	15. 06. 2019 20:11

#	Program:	/corina/corina34_cracker 3.40 0067  02.08.2006

@<TRIPOS>MOLECULE
ASD01918547
  47   49    0    0    0
SMALL
NO_CHARGES


@<TRIPOS>ATOM
   1 C1            -0.0187     1.5258     0.0104 C.3     
   2 C2             0.0021    -0.0041     0.0020 C.3     
   3 C3            -1.4333    -0.5336     0.0129 C.3     
   4 C4            -1.4126    -2.0635     0.0045 C.3     
   5 C5            -2.8479    -2.5931     0.0153 C.3     
   6 C6            -2.8280    -4.0649     0.0072 C.1     
   7 C7            -2.8121    -5.2388     0.0008 C.1     
   8 C8            -2.7926    -6.6706    -0.0071 C.ar    
   9 C9            -1.5819    -7.3634    -0.0165 C.ar    
  10 N10           -1.5638    -8.6805    -0.0237 N.ar    
  11 C11           -2.6742    -9.3923    -0.0220 C.ar    
  12 C12           -3.9147    -8.7802    -0.0124 C.ar    
  13 C13           -3.9881    -7.3985     0.0004 C.ar    
  14 C14           -5.1730    -9.6095    -0.0109 C.3     
  15 H15           -6.0191    -9.0202    -0.3643 H       
  16 N16           -4.9996   -10.8128    -0.8390 N.am    
  17 C17           -5.1468   -11.8968    -0.0649 C.2     
  18 O18           -5.0539   -13.0318    -0.4888 O.2     
  19 O19           -5.4045   -11.6151     1.2171 O.3     
  20 C20           -5.4523   -10.1668     1.3982 C.3     
  21 H21           -4.6813    -9.8426     2.0971 H       
  22 C22           -6.8152    -9.7361     1.8760 C.ar    
  23 C23           -7.9332   -10.4704     1.5279 C.ar    
  24 C24           -9.1843   -10.0765     1.9655 C.ar    
  25 C25           -9.3181    -8.9480     2.7516 C.ar    
  26 C26           -8.1986    -8.2117     3.1014 C.ar    
  27 F27           -8.3282    -7.1082     3.8699 F       
  28 C28           -6.9459    -8.6101     2.6670 C.ar    
  29 H29            1.0039     1.9031     0.0027 H       
  30 H30           -0.5459     1.8868    -0.8726 H       
  31 H31           -0.5289     1.8773     0.9072 H       
  32 H32            0.5123    -0.3556    -0.8948 H       
  33 H33            0.5293    -0.3651     0.8851 H       
  34 H34           -1.9435    -0.1821     0.9097 H       
  35 H35           -1.9605    -0.1726    -0.8702 H       
  36 H36           -0.9024    -2.4150    -0.8923 H       
  37 H37           -0.8854    -2.4246     0.8875 H       
  38 H38           -3.3581    -2.2415     0.9121 H       
  39 H39           -3.3751    -2.2320    -0.8677 H       
  40 H40           -0.6514    -6.8152    -0.0183 H       
  41 H41           -2.6139   -10.4706    -0.0285 H       
  42 H42           -4.9432    -6.8946     0.0119 H       
  43 H43           -4.8101   -10.8205    -1.7903 H       
  44 H44           -7.8296   -11.3524     0.9132 H       
  45 H45          -10.0572   -10.6508     1.6925 H       
  46 H46          -10.2954    -8.6401     3.0927 H       
  47 H47           -6.0717    -8.0391     2.9426 H       
@<TRIPOS>BOND
   1    1    2 1
   2    1   29 1
   3    1   30 1
   4    1   31 1
   5    2    3 1
   6    2   32 1
   7    2   33 1
   8    3    4 1
   9    3   34 1
  10    3   35 1
  11    4    5 1
  12    4   36 1
  13    4   37 1
  14    5    6 1
  15    5   38 1
  16    5   39 1
  17    6    7 3
  18    7    8 1
  19    8   13 ar
  20    8    9 ar
  21    9   10 ar
  22    9   40 1
  23   10   11 ar
  24   11   12 ar
  25   11   41 1
  26   12   13 ar
  27   12   14 1
  28   13   42 1
  29   14   15 1
  30   14   20 1
  31   14   16 1
  32   16   17 am
  33   16   43 1
  34   17   18 2
  35   17   19 1
  36   19   20 1
  37   20   21 1
  38   20   22 1
  39   22   28 ar
  40   22   23 ar
  41   23   24 ar
  42   23   44 1
  43   24   25 ar
  44   24   45 1
  45   25   26 ar
  46   25   46 1
  47   26   27 1
  48   26   28 ar
  49   28   47 1

#	End of record

