#	Name: ASD09200015
#	Creating user name:	WinNT
#	Creation time:	15. 06. 2019 21:21

#	Modifying user name:	WinNT
#	Modification time:	15. 06. 2019 21:21

#	Program:	/corina/corina34_cracker 3.40 0067  02.08.2006

@<TRIPOS>MOLECULE
ASD09200015
  49   51    0    0    0
SMALL
NO_CHARGES


@<TRIPOS>ATOM
   1 C1             0.2307     1.1660     0.1644 C.3     
   2 C2             0.4795    -0.3361     0.3123 C.3     
   3 C3             1.2641    -0.5728     1.6040 C.3     
   4 C4             2.6041     0.1625     1.5454 C.3     
   5 N5             2.4313     1.5678     1.2111 N.3     
   6 C6             1.5631     1.9141     0.0964 C.3     
   7 C7             2.2326     1.6779    -1.2564 C.3     
   8 C8             1.2475     3.4240     0.1968 C.3     
   9 C9             3.2310     0.0877     2.9563 C.3     
  10 C10            3.5557    -0.5501     0.5859 C.3     
  11 N11           -0.8108    -1.0319     0.3982 N.am    
  12 C12           -0.9041    -2.3260     0.0336 C.2     
  13 S13            0.2645    -3.2169    -0.4970 S.o     
  14 C14           -0.6609    -4.7115    -0.7326 C.2     
  15 C15           -1.9136    -4.3748    -0.3481 C.2     
  16 N16           -2.0120    -3.0742     0.0681 N.am    
  17 C17           -3.0538    -5.3131    -0.3700 C.ar    
  18 C18           -2.8719    -6.6298    -0.8041 C.ar    
  19 C19           -3.9408    -7.5001    -0.8213 C.ar    
  20 C20           -5.1924    -7.0732    -0.4101 C.ar    
  21 C21           -5.3802    -5.7706     0.0205 C.ar    
  22 C22           -4.3193    -4.8906     0.0487 C.ar    
  23 H23           -0.3360     1.3518    -0.7495 H       
  24 H24           -0.3431     1.5251     1.0203 H       
  25 H25            1.0299    -0.7169    -0.5428 H       
  26 H26            0.6856    -0.2045     2.4529 H       
  27 H27            1.4427    -1.6419     1.7297 H       
  28 H28            2.2430     2.1308     2.0270 H       
  29 H29            2.3953     0.6097    -1.3997 H       
  30 H30            1.5901     2.0573    -2.0510 H       
  31 H31            3.1900     2.1982    -1.2838 H       
  32 H32            2.1756     3.9934     0.1452 H       
  33 H33            0.5966     3.7147    -0.6277 H       
  34 H34            0.7479     3.6286     1.1437 H       
  35 H35            3.3790    -0.9561     3.2333 H       
  36 H36            4.1916     0.6029     2.9549 H       
  37 H37            2.5646     0.5635     3.6758 H       
  38 H38            3.0696    -0.6755    -0.3816 H       
  39 H39            4.4609     0.0447     0.4634 H       
  40 H40            3.8156    -1.5279     0.9914 H       
  41 H41           -1.5959    -0.5600     0.7173 H       
  42 H42            0.4404    -2.7688    -1.7529 H       
  43 H43           -0.3079    -5.6648    -1.0974 H       
  44 H44           -2.8570    -2.7063     0.3704 H       
  45 H45           -1.8965    -6.9640    -1.1253 H       
  46 H46           -3.8019    -8.5173    -1.1566 H       
  47 H47           -6.0262    -7.7595    -0.4258 H       
  48 H48           -6.3592    -5.4444     0.3391 H       
  49 H49           -4.4672    -3.8750     0.3849 H       
@<TRIPOS>BOND
   1    1    2 1
   2    1    6 1
   3    1   23 1
   4    1   24 1
   5    2    3 1
   6    2   11 1
   7    2   25 1
   8    3    4 1
   9    3   26 1
  10    3   27 1
  11    4    5 1
  12    4    9 1
  13    4   10 1
  14    5    6 1
  15    5   28 1
  16    6    7 1
  17    6    8 1
  18    7   29 1
  19    7   30 1
  20    7   31 1
  21    8   32 1
  22    8   33 1
  23    8   34 1
  24    9   35 1
  25    9   36 1
  26    9   37 1
  27   10   38 1
  28   10   39 1
  29   10   40 1
  30   11   12 am
  31   11   41 1
  32   12   13 2
  33   12   16 am
  34   13   14 1
  35   13   42 1
  36   14   15 2
  37   14   43 1
  38   15   16 1
  39   15   17 1
  40   16   44 1
  41   17   18 ar
  42   17   22 ar
  43   18   19 ar
  44   18   45 1
  45   19   20 ar
  46   19   46 1
  47   20   21 ar
  48   20   47 1
  49   21   22 ar
  50   21   48 1
  51   22   49 1

#	End of record

