#	Name: ASD01910099
#	Creating user name:	WinNT
#	Creation time:	15. 06. 2019 19:55

#	Modifying user name:	WinNT
#	Modification time:	15. 06. 2019 19:55

#	Program:	/corina/corina34_cracker 3.40 0067  02.08.2006

@<TRIPOS>MOLECULE
ASD01910099
  46   49    0    0    0
SMALL
NO_CHARGES


@<TRIPOS>ATOM
   1 C1             0.1087     0.5047     0.3972 C.ar    
   2 C2             0.3382    -0.8572     0.4433 C.ar    
   3 C3             1.6309    -1.3546     0.3809 C.ar    
   4 C4             2.6990    -0.4792     0.2712 C.ar    
   5 C5             2.4648     0.9102     0.2238 C.ar    
   6 C6             1.1678     1.3927     0.2875 C.ar    
   7 C7             4.1651    -0.6454     0.1826 C.2     
   8 N8             4.7297     0.5721     0.0904 N.am    
   9 C9             3.7966     1.5409     0.1078 C.2     
  10 C10            6.1712     0.8115    -0.0142 C.3     
  11 C11            6.5988     0.6818    -1.4535 C.ar    
  12 C12            6.4502     1.7554    -2.3215 C.ar    
  13 C13            6.8450     1.6351    -3.6477 C.ar    
  14 C14            7.3848     0.4483    -4.1019 C.ar    
  15 C15            7.5325    -0.6241    -3.2340 C.ar    
  16 C16            7.1437    -0.5029    -1.9081 C.ar    
  17 N17            5.9022     2.9584    -1.8602 N.am    
  18 C18            5.3554     3.8281    -2.7325 C.2     
  19 C19            4.8817     5.1503    -2.2617 C.ar    
  20 C20            4.3174     6.0447    -3.1682 C.ar    
  21 C21            3.8783     7.2780    -2.7126 C.ar    
  22 C22            4.0190     7.5737    -1.3659 C.ar    
  23 C23            4.5899     6.6356    -0.5204 C.ar    
  24 N24            4.9935     5.4708    -0.9783 N.ar    
  25 O25            5.2508     3.5276    -3.9055 O.2     
  26 O26            4.0123     2.7342     0.0401 O.2     
  27 O27            4.7603    -1.7040     0.1920 O.2     
  28 O28            8.0638    -1.7927    -3.6822 O.3     
  29 C29            8.4478    -1.8454    -5.0577 C.3     
  30 H30           -0.9031     0.8798     0.4424 H       
  31 H31           -0.4951    -1.5388     0.5288 H       
  32 H32            1.8045    -2.4199     0.4181 H       
  33 H33            0.9825     2.4561     0.2512 H       
  34 H34            6.3997     1.8154     0.3437 H       
  35 H35            6.7060     0.0795     0.5910 H       
  36 H36            6.7294     2.4695    -4.3235 H       
  37 H37            7.6918     0.3546    -5.1331 H       
  38 H38            7.2590    -1.3381    -1.2332 H       
  39 H39            5.9162     3.1660    -0.9127 H       
  40 H40            4.2236     5.7811    -4.2114 H       
  41 H41            3.4369     7.9925    -3.3917 H       
  42 H42            3.6873     8.5259    -0.9792 H       
  43 H43            4.7014     6.8628     0.5295 H       
  44 H44            9.2046    -1.0857    -5.2530 H       
  45 H45            8.8554    -2.8308    -5.2836 H       
  46 H46            7.5763    -1.6600    -5.6856 H       
@<TRIPOS>BOND
   1    1    2 ar
   2    1    6 ar
   3    1   30 1
   4    2    3 ar
   5    2   31 1
   6    3    4 ar
   7    3   32 1
   8    4    5 ar
   9    4    7 1
  10    5    6 ar
  11    5    9 1
  12    6   33 1
  13    7    8 am
  14    7   27 2
  15    8    9 am
  16    8   10 1
  17    9   26 2
  18   10   11 1
  19   10   34 1
  20   10   35 1
  21   11   12 ar
  22   11   16 ar
  23   12   13 ar
  24   12   17 1
  25   13   14 ar
  26   13   36 1
  27   14   15 ar
  28   14   37 1
  29   15   16 ar
  30   15   28 1
  31   16   38 1
  32   17   18 am
  33   17   39 1
  34   18   19 1
  35   18   25 2
  36   19   20 ar
  37   19   24 ar
  38   20   21 ar
  39   20   40 1
  40   21   22 ar
  41   21   41 1
  42   22   23 ar
  43   22   42 1
  44   23   24 ar
  45   23   43 1
  46   28   29 1
  47   29   44 1
  48   29   45 1
  49   29   46 1

#	End of record

