#	Name: ASD03090178
#	Creating user name:	WinNT
#	Creation time:	15. 06. 2019 20:28

#	Modifying user name:	WinNT
#	Modification time:	15. 06. 2019 20:28

#	Program:	/corina/corina34_cracker 3.40 0067  02.08.2006

@<TRIPOS>MOLECULE
ASD03090178
  52   55    0    0    0
SMALL
NO_CHARGES


@<TRIPOS>ATOM
   1 N1            -0.2839     0.9192    -0.8041 N.ar    
   2 C2            -0.1640    -0.1738    -0.0735 C.ar    
   3 C3             1.0627    -0.7746     0.1087 C.ar    
   4 C4             2.1952    -0.2113    -0.4936 C.ar    
   5 C5             2.0304     0.9443    -1.2589 C.ar    
   6 C6             0.7581     1.4866    -1.3921 C.ar    
   7 C7             3.5313    -0.8251    -0.3226 C.2     
   8 N8             7.0447    -0.8070    -0.4219 N.pl3   
   9 C9             7.4573     0.4129    -0.9644 C.ar    
  10 C10            6.6781     1.0472    -1.9236 C.ar    
  11 C11            7.0889     2.2529    -2.4577 C.ar    
  12 C12            8.2742     2.8285    -2.0387 C.ar    
  13 C13            9.0525     2.1996    -1.0838 C.ar    
  14 C14            8.6450     0.9969    -0.5415 C.ar    
  15 N15            4.6889    -0.2382    -0.5510 N.2     
  16 C16            5.6833    -1.0879    -0.2906 C.2     
  17 N17            5.1758    -2.2317     0.1086 N.2     
  18 N18            3.7793    -2.0844     0.1011 N.pl3   
  19 C19            2.7877    -3.0974     0.4709 C.3     
  20 C20            2.5388    -3.0407     1.9794 C.3     
  21 N21            0.5770     2.6371    -2.1515 N.3     
  22 C22           -0.8359     3.0431    -2.1640 C.3     
  23 C23           -0.9806     4.3433    -2.9593 C.3     
  24 O24           -0.4610     4.1503    -4.2776 O.3     
  25 C25            0.9132     3.7548    -4.3027 C.3     
  26 C26            1.0771     2.4487    -3.5210 C.3     
  27 O27            1.5716    -4.0288     2.3401 O.3     
  28 C28           10.3438     2.8305    -0.6306 C.3     
  29 F29           10.5384     4.0363    -1.3128 F       
  30 F30           10.2846     3.0773     0.7452 F       
  31 F31           11.4074     1.9635    -0.9035 F       
  32 H32           -1.0405    -0.6033     0.3887 H       
  33 H33            1.1500    -1.6684     0.7086 H       
  34 H34            2.8783     1.4097    -1.7395 H       
  35 H35            7.7041    -1.4586    -0.1366 H       
  36 H36            5.7524     0.5980    -2.2515 H       
  37 H37            6.4838     2.7465    -3.2038 H       
  38 H38            8.5933     3.7711    -2.4583 H       
  39 H39            9.2529     0.5066     0.2044 H       
  40 H40            1.8550    -2.9033    -0.0588 H       
  41 H41            3.1599    -4.0857     0.2009 H       
  42 H42            3.4715    -3.2348     2.5091 H       
  43 H43            2.1666    -2.0524     2.2493 H       
  44 H44           -1.4349     2.2618    -2.6318 H       
  45 H45           -1.1781     3.2019    -1.1414 H       
  46 H46           -2.0338     4.6177    -3.0197 H       
  47 H47           -0.4248     5.1381    -2.4618 H       
  48 H48            1.2297     3.6036    -5.3347 H       
  49 H49            1.5241     4.5325    -3.8442 H       
  50 H50            2.1313     2.1736    -3.4889 H       
  51 H51            0.5086     1.6578    -4.0105 H       
  52 H52            1.3644    -4.0500     3.2844 H       
@<TRIPOS>BOND
   1    1    2 ar
   2    1    6 ar
   3    2    3 ar
   4    2   32 1
   5    3    4 ar
   6    3   33 1
   7    4    5 ar
   8    4    7 1
   9    5    6 ar
  10    5   34 1
  11    6   21 1
  12    7   15 2
  13    7   18 1
  14    8    9 1
  15    8   16 1
  16    8   35 1
  17    9   10 ar
  18    9   14 ar
  19   10   11 ar
  20   10   36 1
  21   11   12 ar
  22   11   37 1
  23   12   13 ar
  24   12   38 1
  25   13   14 ar
  26   13   28 1
  27   14   39 1
  28   15   16 1
  29   16   17 2
  30   17   18 1
  31   18   19 1
  32   19   20 1
  33   19   40 1
  34   19   41 1
  35   20   27 1
  36   20   42 1
  37   20   43 1
  38   21   22 1
  39   21   26 1
  40   22   23 1
  41   22   44 1
  42   22   45 1
  43   23   24 1
  44   23   46 1
  45   23   47 1
  46   24   25 1
  47   25   26 1
  48   25   48 1
  49   25   49 1
  50   26   50 1
  51   26   51 1
  52   27   52 1
  53   28   29 1
  54   28   30 1
  55   28   31 1

#	End of record

