#	Name: ASD03091690
#	Creating user name:	WinNT
#	Creation time:	15. 06. 2019 20:31

#	Modifying user name:	WinNT
#	Modification time:	15. 06. 2019 20:31

#	Program:	/corina/corina34_cracker 3.40 0067  02.08.2006

@<TRIPOS>MOLECULE
ASD03091690
  53   54    0    0    0
SMALL
NO_CHARGES


@<TRIPOS>ATOM
   1 Cl1            0.0000     0.0000     0.0000 Cl      
   2 H2             0.0000     1.3700     0.0000 H       
   3 Cl3            5.0000     6.3700     5.0000 Cl      
   4 H4             5.0000     7.7400     5.0000 H       
   5 C5            19.5216    16.7206    12.0871 C.ar    
   6 C6            19.5406    15.3194    12.0794 C.ar    
   7 C7            20.7606    14.6388    12.0641 C.ar    
   8 C8            21.9482    15.3444    12.0565 C.ar    
   9 C9            21.9312    16.7411    12.0642 C.ar    
  10 C10           20.7549    17.4179    12.0791 C.ar    
  11 S11           17.8902    14.7078    12.0925 S.3     
  12 C12           17.2344    16.3354    12.1077 C.2     
  13 C13           18.2185    17.2411    12.1081 C.2     
  14 C14           15.8022    16.6585    12.1229 C.2     
  15 O15           15.4407    17.8202    12.1323 O.2     
  16 N16           14.8880    15.6682    12.1264 N.am    
  17 N17           11.9512    15.2464    13.9215 N.3     
  18 C18           12.9997    16.2186    13.5845 C.3     
  19 C19           13.4590    15.9905    12.1415 C.3     
  20 C20           12.6623    14.8223    11.5473 C.3     
  21 C21           11.1693    15.1701    11.6024 C.3     
  22 C22           10.7733    15.4203    13.0603 C.3     
  23 C23           12.4617    13.8708    13.8428 C.3     
  24 C24           12.9063    13.5759    12.4075 C.3     
  25 N25           23.1645    14.6620    12.0417 N.pl3   
  26 C26           24.4241    15.4101    12.0337 C.3     
  27 C27           25.5358    14.5434    12.6286 C.3     
  28 C28           24.7849    15.7859    10.5951 C.3     
  29 H29           20.7753    13.5589    12.0585 H       
  30 H30           22.8628    17.2874    12.0586 H       
  31 H31           20.7590    18.4979    12.0845 H       
  32 H32           18.0232    18.3033    12.1164 H       
  33 H33           15.1762    14.7420    12.1188 H       
  34 H34           12.6041    17.2294    13.6847 H       
  35 H35           13.8454    16.0902    14.2600 H       
  36 H36           13.2795    16.8912    11.5543 H       
  37 H37           12.9682    14.6460    10.5160 H       
  38 H38           10.9815    16.0681    11.0137 H       
  39 H39           10.5860    14.3406    11.2028 H       
  40 H40           10.0000    14.7106    13.3541 H       
  41 H41           10.3933    16.4366    13.1647 H       
  42 H42           13.3109    13.7589    14.5169 H       
  43 H43           11.6745    13.1737    14.1301 H       
  44 H44           12.3300    12.7400    12.0110 H       
  45 H45           13.9676    13.3276    12.3977 H       
  46 H46           23.1765    13.6921    12.0367 H       
  47 H47           24.3122    16.3164    12.6288 H       
  48 H48           25.6477    13.6371    12.0335 H       
  49 H49           26.4730    15.1000    12.6226 H       
  50 H50           25.2787    14.2757    13.6534 H       
  51 H51           25.7221    16.3425    10.5891 H       
  52 H52           24.8969    14.8795    10.0000 H       
  53 H53           23.9929    16.4033    10.1713 H       
@<TRIPOS>BOND
   1    1    2 1
   2    3    4 1
   3    5    6 ar
   4    5   10 ar
   5    5   13 1
   6    6    7 ar
   7    6   11 1
   8    7    8 ar
   9    7   29 1
  10    8    9 ar
  11    8   25 1
  12    9   10 ar
  13    9   30 1
  14   10   31 1
  15   11   12 1
  16   12   13 2
  17   12   14 1
  18   13   32 1
  19   14   15 2
  20   14   16 am
  21   16   19 1
  22   16   33 1
  23   17   18 1
  24   17   22 1
  25   17   23 1
  26   18   19 1
  27   18   34 1
  28   18   35 1
  29   19   20 1
  30   19   36 1
  31   20   21 1
  32   20   24 1
  33   20   37 1
  34   21   22 1
  35   21   38 1
  36   21   39 1
  37   22   40 1
  38   22   41 1
  39   23   24 1
  40   23   42 1
  41   23   43 1
  42   24   44 1
  43   24   45 1
  44   25   26 1
  45   25   46 1
  46   26   27 1
  47   26   28 1
  48   26   47 1
  49   27   48 1
  50   27   49 1
  51   27   50 1
  52   28   51 1
  53   28   52 1
  54   28   53 1

#	End of record

