#	Name: ASD02198568
#	Creating user name:	WinNT
#	Creation time:	15. 06. 2019 20:19

#	Modifying user name:	WinNT
#	Modification time:	15. 06. 2019 20:19

#	Program:	/corina/corina34_cracker 3.40 0067  02.08.2006

@<TRIPOS>MOLECULE
ASD02198568
  57   61    0    0    0
SMALL
NO_CHARGES


@<TRIPOS>ATOM
   1 C1             0.0072     1.5097     0.1334 C.2     
   2 C2             0.0745     0.1696    -0.0949 C.2     
   3 N3            -1.0519    -0.5606    -0.2642 N.pl3   
   4 N4            -2.2299    -0.0571    -0.2233 N.2     
   5 C5            -2.4374     1.2260    -0.0103 C.2     
   6 C6            -1.2790     2.1067     0.1922 C.2     
   7 C7            -0.9243    -1.9345    -0.4959 C.ar    
   8 C8            -1.3850    -3.8654    -1.8476 C.ar    
   9 C9            -0.6723    -4.6557    -0.9542 C.ar    
  10 C10           -0.0913    -4.0826     0.1705 C.ar    
  11 C11           -0.2168    -2.7272     0.3986 C.ar    
  12 C12           -3.8106     1.7690     0.0297 C.2     
  13 N13           -4.3724     2.4816     1.0514 N.pl3   
  14 N14           -5.6842     2.8002     0.6785 N.2     
  15 C15           -5.9147     2.3075    -0.5123 C.2     
  16 C16           -4.7640     1.6574    -0.9584 C.2     
  17 C17           -3.7484     2.8305     2.2559 C.ar    
  18 C18           -2.9551     1.9055     2.9219 C.ar    
  19 O19           -1.4169     3.3047     0.3938 O.2     
  20 C20           -3.9172     4.1038     2.7837 C.ar    
  21 C21           -3.3006     4.4447     3.9716 C.ar    
  22 C22           -2.5158     3.5195     4.6353 C.ar    
  23 C23           -2.3411     2.2526     4.1094 C.ar    
  24 C24           -1.5114    -2.5085    -1.6202 C.ar    
  25 F25           -2.2045    -1.7393    -2.4880 F       
  26 O26            1.1345     2.2509     0.3050 O.3     
  27 C27            2.3829     1.5589     0.2345 C.3     
  28 N28           -0.5449    -6.0276    -1.1836 N.3     
  29 C29            0.2428    -6.6677    -0.1224 C.3     
  30 C30            0.2391    -8.1844    -0.3267 C.3     
  31 C31            0.8357    -8.5111    -1.6985 C.3     
  32 C32            0.0264    -7.7935    -2.7823 C.3     
  33 C33            0.0363    -6.2882    -2.5068 C.3     
  34 F34            0.5984    -8.0429    -4.0345 F       
  35 F35           -1.2916    -8.2623    -2.7684 F       
  36 H36            1.0378    -0.3163    -0.1418 H       
  37 H37           -1.8363    -4.3109    -2.7218 H       
  38 H38            0.4625    -4.6976     0.8644 H       
  39 H39            0.2355    -2.2828     1.2728 H       
  40 H40           -6.8414     2.3934    -1.0603 H       
  41 H41           -4.6443     1.1516    -1.9051 H       
  42 H42           -2.8186     0.9158     2.5118 H       
  43 H43           -4.5297     4.8269     2.2657 H       
  44 H44           -3.4311     5.4349     4.3824 H       
  45 H45           -2.0346     3.7885     5.5640 H       
  46 H46           -1.7279     1.5321     4.6303 H       
  47 H47            2.4851     1.0930    -0.7456 H       
  48 H48            3.1989     2.2651     0.3880 H       
  49 H49            2.4168     0.7909     1.0073 H       
  50 H50            1.2679    -6.2989    -0.1582 H       
  51 H51           -0.1945    -6.4309     0.8476 H       
  52 H52            0.8368    -8.6580     0.4522 H       
  53 H53           -0.7844    -8.5558    -0.2772 H       
  54 H54            1.8718    -8.1745    -1.7347 H       
  55 H55            0.7953    -9.5873    -1.8664 H       
  56 H56           -0.5510    -5.7756    -3.2687 H       
  57 H57            1.0623    -5.9211    -2.5315 H       
@<TRIPOS>BOND
   1    1    2 2
   2    1   26 1
   3    1    6 1
   4    2    3 1
   5    2   36 1
   6    3    4 1
   7    3    7 1
   8    4    5 2
   9    5    6 1
  10    5   12 1
  11    6   19 2
  12    7   24 ar
  13    7   11 ar
  14    8    9 ar
  15    8   24 ar
  16    8   37 1
  17    9   10 ar
  18    9   28 1
  19   10   11 ar
  20   10   38 1
  21   11   39 1
  22   12   13 1
  23   12   16 2
  24   13   14 1
  25   13   17 1
  26   14   15 2
  27   15   16 1
  28   15   40 1
  29   16   41 1
  30   17   20 ar
  31   17   18 ar
  32   18   23 ar
  33   18   42 1
  34   20   21 ar
  35   20   43 1
  36   21   22 ar
  37   21   44 1
  38   22   23 ar
  39   22   45 1
  40   23   46 1
  41   24   25 1
  42   26   27 1
  43   27   47 1
  44   27   48 1
  45   27   49 1
  46   28   29 1
  47   28   33 1
  48   29   30 1
  49   29   50 1
  50   29   51 1
  51   30   31 1
  52   30   52 1
  53   30   53 1
  54   31   32 1
  55   31   54 1
  56   31   55 1
  57   32   33 1
  58   32   34 1
  59   32   35 1
  60   33   56 1
  61   33   57 1

#	End of record

