#	Name: ASD01310035
#	Creating user name:	WinNT
#	Creation time:	15. 06. 2019 19:15

#	Modifying user name:	WinNT
#	Modification time:	15. 06. 2019 19:15

#	Program:	/corina/corina34_cracker 3.40 0067  02.08.2006

@<TRIPOS>MOLECULE
ASD01310035
  48   52    0    0    0
SMALL
NO_CHARGES


@<TRIPOS>ATOM
   1 O1            -0.1757     3.9167    -1.1903 O.3     
   2 C2            -0.4868     2.5592    -1.5558 C.3     
   3 O3             0.7295     2.0802    -2.1597 O.3     
   4 C4             1.7316     2.8117    -1.5906 C.ar    
   5 C5             1.1749     3.9411    -0.9944 C.ar    
   6 C6             1.9924     4.8509    -0.3446 C.ar    
   7 C7             3.0997     2.6046    -1.5304 C.ar    
   8 C8             3.9098     3.5172    -0.8799 C.ar    
   9 C9             3.3576     4.6378    -0.2889 C.ar    
  10 S10            4.3953     5.7975     0.5375 S.o2    
  11 O11            5.6604     5.6463    -0.0917 O.2     
  12 O12            3.6810     7.0236     0.4612 O.2     
  13 C13            4.4616     5.2051     2.2507 C.3     
  14 C14            6.3626     3.9474     3.1934 C.3     
  15 C15            5.1156     3.8124     2.3023 C.3     
  16 C16            5.3487     6.1394     3.0991 C.3     
  17 C17            5.9411     2.6016     5.2766 C.ar    
  18 C18            6.5448     2.7170     4.0287 C.ar    
  19 C19            6.0947     5.1856     4.0674 C.3     
  20 C20            5.1696     4.8472     5.2014 C.2     
  21 N21            5.1668     3.6387     5.7825 N.am    
  22 C22            6.8977     0.4220     5.4612 C.ar    
  23 N23            7.4736     0.5749     4.2838 N.ar    
  24 C24            7.3201     1.6714     3.5661 C.ar    
  25 C25            6.1121     1.4232     5.9968 C.ar    
  26 O26            4.4010     5.6942     5.6046 O.2     
  27 C27            4.3356     3.4085     6.9667 C.3     
  28 C28            4.4856     7.1298     3.8833 C.3     
  29 H29           -0.7327     1.9712    -0.6715 H       
  30 H30           -1.3065     2.5341    -2.2738 H       
  31 H31            1.5636     5.7272     0.1185 H       
  32 H32            3.5340     1.7298    -1.9914 H       
  33 H33            4.9765     3.3540    -0.8340 H       
  34 H34            3.4564     5.1622     2.6700 H       
  35 H35            7.2439     4.1146     2.5742 H       
  36 H36            4.4233     3.0903     2.7353 H       
  37 H37            5.4051     3.4982     1.2995 H       
  38 H38            6.0587     6.6703     2.4649 H       
  39 H39            7.0254     5.6286     4.4219 H       
  40 H40            7.0422    -0.4958     6.0116 H       
  41 H41            7.8063     1.7524     2.6051 H       
  42 H42            5.6386     1.2941     6.9589 H       
  43 H43            4.9751     3.2026     7.8250 H       
  44 H44            3.7340     4.2953     7.1662 H       
  45 H45            3.6793     2.5564     6.7898 H       
  46 H46            3.5829     6.6282     4.2322 H       
  47 H47            5.0477     7.5032     4.7393 H       
  48 H48            4.2112     7.9637     3.2371 H       
@<TRIPOS>BOND
   1    1    2 1
   2    1    5 1
   3    2    3 1
   4    2   29 1
   5    2   30 1
   6    3    4 1
   7    4    7 ar
   8    4    5 ar
   9    5    6 ar
  10    6    9 ar
  11    6   31 1
  12    7    8 ar
  13    7   32 1
  14    8    9 ar
  15    8   33 1
  16    9   10 1
  17   10   11 2
  18   10   12 2
  19   10   13 1
  20   13   16 1
  21   13   15 1
  22   13   34 1
  23   14   15 1
  24   14   19 1
  25   14   18 1
  26   14   35 1
  27   15   36 1
  28   15   37 1
  29   16   19 1
  30   16   28 1
  31   16   38 1
  32   17   21 1
  33   17   25 ar
  34   17   18 ar
  35   18   24 ar
  36   19   20 1
  37   19   39 1
  38   20   21 am
  39   20   26 2
  40   21   27 1
  41   22   23 ar
  42   22   25 ar
  43   22   40 1
  44   23   24 ar
  45   24   41 1
  46   25   42 1
  47   27   43 1
  48   27   44 1
  49   27   45 1
  50   28   46 1
  51   28   47 1
  52   28   48 1

#	End of record

