#	Name: ASD01901621
#	Creating user name:	WinNT
#	Creation time:	15. 06. 2019 19:54

#	Modifying user name:	WinNT
#	Modification time:	15. 06. 2019 19:54

#	Program:	/corina/corina34_cracker 3.40 0067  02.08.2006

@<TRIPOS>MOLECULE
ASD01901621
  50   54    0    0    0
SMALL
NO_CHARGES


@<TRIPOS>ATOM
   1 C1             0.1598     0.8158     1.2901 C.3     
   2 N2            -0.0114     0.0692     0.0365 N.3     
   3 C3             1.0767    -0.8994    -0.1521 C.3     
   4 C4             2.3965    -0.1515    -0.3512 C.3     
   5 C5             3.5468    -1.1535    -0.6230 C.3     
   6 C6             4.5445    -0.2529    -1.4012 C.3     
   7 C7             3.5988     0.6760    -2.1925 C.3     
   8 O8             2.3307     0.6718    -1.5265 O.3     
   9 C9            -1.2455    -0.5569    -0.0035 C.ar    
  10 N10           -1.5315    -1.5127     0.8604 N.ar    
  11 C11           -2.6978    -2.1458     0.8679 C.ar    
  12 C12           -3.6836    -1.8496    -0.0209 C.ar    
  13 C13           -3.4563    -0.8391    -0.9775 C.ar    
  14 C14           -4.4235    -0.4797    -1.9228 C.ar    
  15 C15           -4.1407     0.5187    -2.8337 C.ar    
  16 N16           -5.0992     0.8828    -3.7790 N.pl3   
  17 C17           -4.7031     1.4578    -4.9906 C.2     
  18 N18           -3.4737     1.6070    -5.4071 N.2     
  19 N19           -3.4649     2.2212    -6.6637 N.pl3   
  20 H20           -2.6717     2.4374    -7.1785 H       
  21 C21           -4.7553     2.4682    -7.0516 C.ar    
  22 C22           -5.3320     3.0469    -8.1816 C.ar    
  23 C23           -6.7089     3.1366    -8.2392 C.ar    
  24 C24           -7.4732     2.6547    -7.1846 C.ar    
  25 N25           -6.9142     2.1121    -6.1269 N.ar    
  26 C26           -5.5924     1.9951    -6.0231 C.ar    
  27 C27           -2.9015     1.1692    -2.8173 C.ar    
  28 C28           -1.9472     0.8348    -1.9063 C.ar    
  29 C29           -2.2051    -0.1711    -0.9650 C.ar    
  30 H30            1.1435     1.2850     1.3021 H       
  31 H31           -0.6101     1.5840     1.3635 H       
  32 H32            0.0728     0.1324     2.1347 H       
  33 H33            1.1505    -1.5388     0.7276 H       
  34 H34            0.8700    -1.5117    -1.0299 H       
  35 H35            2.6218     0.4568     0.5247 H       
  36 H36            3.9848    -1.5110     0.3089 H       
  37 H37            3.2057    -1.9854    -1.2392 H       
  38 H38            5.1663     0.3209    -0.7140 H       
  39 H39            5.1585    -0.8481    -2.0770 H       
  40 H40            4.0038     1.6878    -2.2102 H       
  41 H41            3.4828     0.3050    -3.2109 H       
  42 H42           -2.8691    -2.9196     1.6015 H       
  43 H43           -4.6243    -2.3796     0.0054 H       
  44 H44           -5.3813    -0.9784    -1.9399 H       
  45 H45           -6.0406     0.7372    -3.5960 H       
  46 H46           -4.7182     3.4155    -8.9901 H       
  47 H47           -7.1886     3.5795    -9.0995 H       
  48 H48           -8.5496     2.7278    -7.2349 H       
  49 H49           -2.6995     1.9476    -3.5382 H       
  50 H50           -0.9958     1.3458    -1.9061 H       
@<TRIPOS>BOND
   1    1    2 1
   2    1   30 1
   3    1   31 1
   4    1   32 1
   5    2    3 1
   6    2    9 1
   7    3    4 1
   8    3   33 1
   9    3   34 1
  10    4    8 1
  11    4    5 1
  12    4   35 1
  13    5    6 1
  14    5   36 1
  15    5   37 1
  16    6    7 1
  17    6   38 1
  18    6   39 1
  19    7    8 1
  20    7   40 1
  21    7   41 1
  22    9   29 ar
  23    9   10 ar
  24   10   11 ar
  25   11   12 ar
  26   11   42 1
  27   12   13 ar
  28   12   43 1
  29   13   29 ar
  30   13   14 ar
  31   14   15 ar
  32   14   44 1
  33   15   16 1
  34   15   27 ar
  35   16   17 1
  36   16   45 1
  37   17   26 1
  38   17   18 2
  39   18   19 1
  40   19   20 1
  41   19   21 1
  42   21   26 ar
  43   21   22 ar
  44   22   23 ar
  45   22   46 1
  46   23   24 ar
  47   23   47 1
  48   24   25 ar
  49   24   48 1
  50   25   26 ar
  51   27   28 ar
  52   27   49 1
  53   28   29 ar
  54   28   50 1

#	End of record

