#	Name: ASD04590059
#	Creating user name:	WinNT
#	Creation time:	15. 06. 2019 20:50

#	Modifying user name:	WinNT
#	Modification time:	15. 06. 2019 20:50

#	Program:	/corina/corina34_cracker 3.40 0067  02.08.2006

@<TRIPOS>MOLECULE
ASD04590059
  34   36    0    0    0
SMALL
NO_CHARGES


@<TRIPOS>ATOM
   1 N1            -0.0768     1.2682    -0.0494 N.pl3   
   2 N2            -0.0362    -0.0145     0.0019 N.2     
   3 C3             1.1929    -0.4418    -0.2149 C.2     
   4 C4             2.0016     0.7055    -0.4235 C.2     
   5 C5             1.1591     1.7668    -0.3103 C.2     
   6 C6             1.6418    -1.8464    -0.2361 C.2     
   7 O7             2.8103    -2.1081    -0.4486 O.2     
   8 N8             0.7572    -2.8399    -0.0200 N.am    
   9 C9             1.1618    -4.1748    -0.1363 C.ar    
  10 C10            2.4397    -4.5507     0.2561 C.ar    
  11 C11            2.8369    -5.8684     0.1404 C.ar    
  12 C12            1.9618    -6.8144    -0.3663 C.ar    
  13 C13            0.6872    -6.4416    -0.7586 C.ar    
  14 C14            0.2839    -5.1261    -0.6389 C.ar    
  15 F15            2.3524    -8.1028    -0.4786 F       
  16 N16            3.3784     0.7380    -0.6897 N.am    
  17 C17            4.0033     1.9193    -0.8645 C.2     
  18 O18            3.3729     2.9579    -0.7915 O.2     
  19 O19            6.2549     0.8813    -1.2496 O.3     
  20 C20            5.4426     1.9532    -1.1427 C.2     
  21 C21            6.1957     3.0752    -1.3394 C.2     
  22 C22            7.5106     2.6430    -1.5726 C.2     
  23 C23            7.5027     1.2932    -1.5088 C.2     
  24 H24           -0.8759     1.8035     0.0760 H       
  25 H25            1.4229     2.8094    -0.4095 H       
  26 H26           -0.1599    -2.6299     0.2161 H       
  27 H27            3.1226    -3.8131     0.6510 H       
  28 H28            3.8308    -6.1611     0.4452 H       
  29 H29            0.0064    -7.1809    -1.1539 H       
  30 H30           -0.7120    -4.8367    -0.9405 H       
  31 H31            3.8808    -0.0897    -0.7478 H       
  32 H32            5.8470     4.0972    -1.3198 H       
  33 H33            8.3675     3.2711    -1.7666 H       
  34 H34            8.3612     0.6521    -1.6445 H       
@<TRIPOS>BOND
   1    1    2 1
   2    1    5 1
   3    1   24 1
   4    2    3 2
   5    3    4 1
   6    3    6 1
   7    4    5 2
   8    4   16 1
   9    5   25 1
  10    6    7 2
  11    6    8 am
  12    8    9 1
  13    8   26 1
  14    9   10 ar
  15    9   14 ar
  16   10   11 ar
  17   10   27 1
  18   11   12 ar
  19   11   28 1
  20   12   13 ar
  21   12   15 1
  22   13   14 ar
  23   13   29 1
  24   14   30 1
  25   16   17 am
  26   16   31 1
  27   17   18 2
  28   17   20 1
  29   19   20 1
  30   19   23 1
  31   20   21 2
  32   21   22 1
  33   21   32 1
  34   22   23 2
  35   22   33 1
  36   23   34 1

#	End of record

