#	Name: ASD02590045
#	Creating user name:	WinNT
#	Creation time:	15. 06. 2019 20:25

#	Modifying user name:	WinNT
#	Modification time:	15. 06. 2019 20:25

#	Program:	/corina/corina34_cracker 3.40 0067  02.08.2006

@<TRIPOS>MOLECULE
ASD02590045
  32   34    0    0    0
SMALL
NO_CHARGES


@<TRIPOS>ATOM
   1 C1            -0.0168     1.3881     0.0097 C.ar    
   2 C2             0.0021    -0.0041     0.0020 C.ar    
   3 C3            -1.1767    -0.7182     0.0090 C.ar    
   4 C4            -2.3920    -0.0482     0.0242 C.ar    
   5 C5            -2.4200     1.3581     0.0325 C.ar    
   6 C6            -1.2161     2.0707     0.0305 C.ar    
   7 N7            -3.7115    -0.4592     0.0342 N.pl3   
   8 C8            -4.4862     0.6687     0.0479 C.2     
   9 N9            -3.7215     1.7325     0.0468 N.2     
  10 C10           -5.9659     0.6845     0.0623 C.ar    
  11 C11           -6.6429     1.9015     0.0756 C.ar    
  12 C12           -8.0291     1.9037     0.0885 C.ar    
  13 C13           -8.6935     0.6889     0.0878 C.ar    
  14 C14           -7.9566    -0.4908     0.0742 C.ar    
  15 N15           -6.6367    -0.4626     0.0569 N.ar    
  16 O16           -8.6018    -1.6843     0.0739 O.3     
  17 C17           -7.7903    -2.8604     0.0596 C.3     
  18 O18            1.1540     2.0795     0.0022 O.3     
  19 C19            2.3600     1.3131    -0.0134 C.3     
  20 H20            0.9466    -0.5277    -0.0098 H       
  21 H21           -1.1547    -1.7980     0.0023 H       
  22 H22           -1.2252     3.1507     0.0368 H       
  23 H23           -4.0290    -1.3758     0.0315 H       
  24 H24           -6.0947     2.8320     0.0761 H       
  25 H25           -8.5791     2.8331     0.0993 H       
  26 H26           -9.7730     0.6577     0.0981 H       
  27 H27           -7.1696    -2.8627    -0.8364 H       
  28 H28           -7.1524    -2.8725     0.9434 H       
  29 H29           -8.4297    -3.7431     0.0609 H       
  30 H30            2.3995     0.6798     0.8728 H       
  31 H31            2.3825     0.6894    -0.9070 H       
  32 H32            3.2178     1.9856    -0.0180 H       
@<TRIPOS>BOND
   1    1    2 ar
   2    1   18 1
   3    1    6 ar
   4    2    3 ar
   5    2   20 1
   6    3    4 ar
   7    3   21 1
   8    4    5 ar
   9    4    7 1
  10    5    6 ar
  11    5    9 1
  12    6   22 1
  13    7    8 1
  14    7   23 1
  15    8    9 2
  16    8   10 1
  17   10   11 ar
  18   10   15 ar
  19   11   12 ar
  20   11   24 1
  21   12   13 ar
  22   12   25 1
  23   13   14 ar
  24   13   26 1
  25   14   15 ar
  26   14   16 1
  27   16   17 1
  28   17   27 1
  29   17   28 1
  30   17   29 1
  31   18   19 1
  32   19   30 1
  33   19   31 1
  34   19   32 1

#	End of record

