#	Name: ASD02198299
#	Creating user name:	WinNT
#	Creation time:	15. 06. 2019 20:19

#	Modifying user name:	WinNT
#	Modification time:	15. 06. 2019 20:19

#	Program:	/corina/corina34_cracker 3.40 0067  02.08.2006

@<TRIPOS>MOLECULE
ASD02198299
  34   36    0    0    0
SMALL
NO_CHARGES


@<TRIPOS>ATOM
   1 C1             0.4705     1.5476     0.0848 C.2     
   2 C2             0.6301     0.1751     0.1487 C.2     
   3 S3             2.0546     2.2820     0.3198 S.3     
   4 C4             2.7662     0.7366     0.4775 C.2     
   5 N5             1.8698    -0.2004     0.3590 N.2     
   6 N6            -0.4192    -0.7182     0.0050 N.pl3   
   7 C7            -0.7384     2.2336    -0.1345 C.2     
   8 C8            -0.7796     3.7100    -0.0373 C.ar    
   9 O9            -1.7519     1.6118    -0.4047 O.2     
  10 N10            4.1067     0.5124     0.6992 N.pl3   
  11 C11            4.5691    -0.7867     0.9321 C.ar    
  12 C12            5.8736    -1.1305     0.6014 C.ar    
  13 C13           -1.7121     4.4352    -0.7800 C.ar    
  14 C14            0.1099     4.3820     0.8018 C.ar    
  15 C15            0.0663     5.7583     0.8879 C.ar    
  16 C16           -0.8571     6.4720     0.1449 C.ar    
  17 C17           -1.7454     5.8112    -0.6850 C.ar    
  18 C18            6.3277    -2.4142     0.8324 C.ar    
  19 C19            5.4843    -3.3575     1.3928 C.ar    
  20 C20            4.1841    -3.0176     1.7232 C.ar    
  21 C21            3.7265    -1.7339     1.4997 C.ar    
  22 Cl22           6.0582    -4.9703     1.6812 Cl      
  23 H23           -1.3187    -0.3891    -0.1486 H       
  24 H24           -0.2544    -1.6726     0.0581 H       
  25 H25            4.7301     1.2554     0.6939 H       
  26 H26            6.5321    -0.3949     0.1637 H       
  27 H27           -2.4059     3.9206    -1.4282 H       
  28 H28            0.8307     3.8260     1.3829 H       
  29 H29            0.7543     6.2796     1.5370 H       
  30 H30           -0.8875     7.5492     0.2160 H       
  31 H31           -2.4636     6.3740    -1.2628 H       
  32 H32            7.3418    -2.6822     0.5752 H       
  33 H33            3.5279    -3.7558     2.1601 H       
  34 H34            2.7119    -1.4691     1.7581 H       
@<TRIPOS>BOND
   1    1    2 2
   2    1    3 1
   3    1    7 1
   4    2    6 1
   5    2    5 1
   6    3    4 1
   7    4    5 2
   8    4   10 1
   9    6   23 1
  10    6   24 1
  11    7    8 1
  12    7    9 2
  13    8   13 ar
  14    8   14 ar
  15   10   11 1
  16   10   25 1
  17   11   12 ar
  18   11   21 ar
  19   12   18 ar
  20   12   26 1
  21   13   17 ar
  22   13   27 1
  23   14   15 ar
  24   14   28 1
  25   15   16 ar
  26   15   29 1
  27   16   17 ar
  28   16   30 1
  29   17   31 1
  30   18   19 ar
  31   18   32 1
  32   19   20 ar
  33   19   22 1
  34   20   21 ar
  35   20   33 1
  36   21   34 1

#	End of record

