#	Name: ASD01841090
#	Creating user name:	WinNT
#	Creation time:	15. 06. 2019 19:38

#	Modifying user name:	WinNT
#	Modification time:	15. 06. 2019 19:38

#	Program:	/corina/corina34_cracker 3.40 0067  02.08.2006

@<TRIPOS>MOLECULE
ASD01841090
  43   45    0    0    0
SMALL
NO_CHARGES


@<TRIPOS>ATOM
   1 C1            -0.2342     1.4161     0.2995 C.ar    
   2 C2            -0.2532     0.0188     0.3719 C.ar    
   3 C3             0.9222    -0.6498     0.7827 C.ar    
   4 C4             2.0351     0.0985     1.0941 C.ar    
   5 C5             1.9762     1.4807     0.9977 C.ar    
   6 N6             0.8769     2.0874     0.6153 N.ar    
   7 C7            -1.5424    -0.5350    -0.0064 C.2     
   8 C8            -2.4648     0.3969    -0.3516 C.2     
   9 S9            -1.8033     2.0147    -0.2259 S.3     
  10 C10           -3.7906     0.1016    -0.7568 C.2     
  11 O11           -4.1670    -1.0552    -0.8121 O.2     
  12 N12           -4.6346     1.1012    -1.0809 N.am    
  13 C13            3.1943     2.2998     1.3386 C.3     
  14 C14            0.9566    -2.1534     0.8785 C.3     
  15 C15           -6.0049     0.7960    -1.4996 C.3     
  16 C16           -6.7349     2.0789    -1.8032 C.ar    
  17 C17           -6.5412     2.7139    -3.0190 C.ar    
  18 C18           -7.2105     3.8920    -3.2985 C.ar    
  19 C19           -8.0756     4.4356    -2.3603 C.ar    
  20 C20           -8.2674     3.7966    -1.1440 C.ar    
  21 C21           -7.6011     2.6174    -0.8705 C.ar    
  22 O22           -8.7340     5.5930    -2.6321 O.3     
  23 C23           -9.6088     6.0948    -1.6198 C.3     
  24 F24           -5.6983     2.1831    -3.9316 F       
  25 N25           -1.8060    -1.8975    -0.0141 N.pl3   
  26 H26            2.9464    -0.3869     1.4110 H       
  27 H27           -4.3348     2.0226    -1.0368 H       
  28 H28            3.7986     2.4424     0.4427 H       
  29 H29            2.8831     3.2703     1.7251 H       
  30 H30            3.7824     1.7792     2.0944 H       
  31 H31            1.1670    -2.5754    -0.1042 H       
  32 H32            1.7362    -2.4552     1.5780 H       
  33 H33           -0.0085    -2.5171     1.2311 H       
  34 H34           -5.9813     0.1713    -2.3926 H       
  35 H35           -6.5200     0.2656    -0.6987 H       
  36 H36           -7.0594     4.3879    -4.2459 H       
  37 H37           -8.9404     4.2188    -0.4124 H       
  38 H38           -7.7542     2.1181     0.0748 H       
  39 H39          -10.0695     7.0208    -1.9640 H       
  40 H40          -10.3849     5.3581    -1.4124 H       
  41 H41           -9.0394     6.2884    -0.7107 H       
  42 H42           -1.0758    -2.5325    -0.0813 H       
  43 H43           -2.7206    -2.2149     0.0478 H       
@<TRIPOS>BOND
   1    1    2 ar
   2    1    6 ar
   3    1    9 1
   4    2    3 ar
   5    2    7 1
   6    3    4 ar
   7    3   14 1
   8    4    5 ar
   9    4   26 1
  10    5    6 ar
  11    5   13 1
  12    7    8 2
  13    7   25 1
  14    8    9 1
  15    8   10 1
  16   10   11 2
  17   10   12 am
  18   12   15 1
  19   12   27 1
  20   13   28 1
  21   13   29 1
  22   13   30 1
  23   14   31 1
  24   14   32 1
  25   14   33 1
  26   15   16 1
  27   15   34 1
  28   15   35 1
  29   16   17 ar
  30   16   21 ar
  31   17   18 ar
  32   17   24 1
  33   18   19 ar
  34   18   36 1
  35   19   20 ar
  36   19   22 1
  37   20   21 ar
  38   20   37 1
  39   21   38 1
  40   22   23 1
  41   23   39 1
  42   23   40 1
  43   23   41 1
  44   25   42 1
  45   25   43 1

#	End of record

