#	Name: ASD01901303
#	Creating user name:	WinNT
#	Creation time:	15. 06. 2019 19:53

#	Modifying user name:	WinNT
#	Modification time:	15. 06. 2019 19:53

#	Program:	/corina/corina34_cracker 3.40 0067  02.08.2006

@<TRIPOS>MOLECULE
ASD01901303
  40   43    0    0    0
SMALL
NO_CHARGES


@<TRIPOS>ATOM
   1 C1             0.0801     1.3205     0.2092 C.3     
   2 C2             0.2007    -0.1905     0.0226 C.3     
   3 C3             1.2980    -0.7076     0.9603 C.3     
   4 C4             2.6472    -0.2150     0.4412 C.3     
   5 C5             2.6115     1.2722     0.2022 C.ar    
   6 C6             1.4308     1.9777     0.0912 C.ar    
   7 N7             1.4588     3.2873    -0.1271 N.ar    
   8 N8             3.7742     1.9050     0.0970 N.ar    
   9 C9             3.8155     3.2118    -0.1181 C.ar    
  10 C10            2.6126     3.9296    -0.2366 C.ar    
  11 C11            2.6348     5.3909    -0.4816 C.ar    
  12 C12            5.1175     3.9101    -0.2327 C.ar    
  13 C13            1.8139     7.3148    -1.6604 C.ar    
  14 C14            1.7888     5.9534    -1.4366 C.ar    
  15 C15            3.4977     6.2096     0.2460 C.ar    
  16 C16            3.5138     7.5697     0.0134 C.ar    
  17 C17            2.6763     8.1213    -0.9394 C.ar    
  18 C18            5.3244     4.8429    -1.2482 C.ar    
  19 C19            6.1385     3.6411     0.6779 C.ar    
  20 C20            7.3489     4.2944     0.5660 C.ar    
  21 C21            7.5502     5.2147    -0.4470 C.ar    
  22 C22            6.5389     5.4900    -1.3500 C.ar    
  23 H23           -0.5845     1.7252    -0.5542 H       
  24 H24           -0.3363     1.5290     1.1947 H       
  25 H25           -0.7478    -0.6677     0.2691 H       
  26 H26            0.4663    -0.4128    -1.0109 H       
  27 H27            1.1303    -0.3255     1.9673 H       
  28 H28            1.2856    -1.7974     0.9740 H       
  29 H29            3.4198    -0.4425     1.1757 H       
  30 H30            2.8801    -0.7239    -0.4941 H       
  31 H31            1.1594     7.7516    -2.4002 H       
  32 H32            1.1154     5.3247    -2.0004 H       
  33 H33            4.1518     5.7801     0.9904 H       
  34 H34            4.1815     8.2049     0.5766 H       
  35 H35            2.6927     9.1862    -1.1183 H       
  36 H36            4.5357     5.0584    -1.9539 H       
  37 H37            5.9824     2.9231     1.4694 H       
  38 H38            8.1404     4.0871     1.2710 H       
  39 H39            8.4991     5.7236    -0.5306 H       
  40 H40            6.7005     6.2125    -2.1363 H       
@<TRIPOS>BOND
   1    1    2 1
   2    1    6 1
   3    1   23 1
   4    1   24 1
   5    2    3 1
   6    2   25 1
   7    2   26 1
   8    3    4 1
   9    3   27 1
  10    3   28 1
  11    4    5 1
  12    4   29 1
  13    4   30 1
  14    5    6 ar
  15    5    8 ar
  16    6    7 ar
  17    7   10 ar
  18    8    9 ar
  19    9   10 ar
  20    9   12 1
  21   10   11 1
  22   11   15 ar
  23   11   14 ar
  24   12   19 ar
  25   12   18 ar
  26   13   14 ar
  27   13   17 ar
  28   13   31 1
  29   14   32 1
  30   15   16 ar
  31   15   33 1
  32   16   17 ar
  33   16   34 1
  34   17   35 1
  35   18   22 ar
  36   18   36 1
  37   19   20 ar
  38   19   37 1
  39   20   21 ar
  40   20   38 1
  41   21   22 ar
  42   21   39 1
  43   22   40 1

#	End of record

