#	Name: ASD02470009
#	Creating user name:	WinNT
#	Creation time:	15. 06. 2019 20:22

#	Modifying user name:	WinNT
#	Modification time:	15. 06. 2019 20:22

#	Program:	/corina/corina34_cracker 3.40 0067  02.08.2006

@<TRIPOS>MOLECULE
ASD02470009
  17   16    0    0    0
SMALL
NO_CHARGES


@<TRIPOS>ATOM
   1 P1            -0.0180     1.4758     0.0102 P.3     
   2 O2             0.0021    -0.0041     0.0020 O.2     
   3 C3             1.6923     2.1068    -0.0028 C.3     
   4 O4            -0.7967     2.0091    -1.2942 O.3     
   5 C5             2.4323     1.5999     1.2367 C.3     
   6 O6            -0.7716     1.9950     1.3348 O.3     
   7 C7            -2.0945     1.5864     1.6883 C.3     
   8 O8             2.3611     1.6459    -1.1785 O.3     
   9 H9             1.6775     3.1967     0.0032 H       
  10 H10           -0.8486     2.9728    -1.3546 H       
  11 H11            2.4470     0.5101     1.2307 H       
  12 H12            3.4549     1.9772     1.2290 H       
  13 H13            1.9221     1.9515     2.1335 H       
  14 H14           -2.7873     1.8749     0.8978 H       
  15 H15           -2.1187     0.5041     1.8155 H       
  16 H16           -2.3866     2.0685     2.6212 H       
  17 H17            3.2781     1.9441    -1.2518 H       
@<TRIPOS>BOND
   1    1    2 2
   2    1    3 1
   3    1    4 1
   4    1    6 1
   5    3    5 1
   6    3    8 1
   7    3    9 1
   8    4   10 1
   9    5   11 1
  10    5   12 1
  11    5   13 1
  12    6    7 1
  13    7   14 1
  14    7   15 1
  15    7   16 1
  16    8   17 1

#	End of record

