#	Name: ASD03430181
#	Creating user name:	WinNT
#	Creation time:	15. 06. 2019 20:40

#	Modifying user name:	WinNT
#	Modification time:	15. 06. 2019 20:40

#	Program:	/corina/corina34_cracker 3.40 0067  02.08.2006

@<TRIPOS>MOLECULE
ASD03430181
  64   70    0    0    0
SMALL
NO_CHARGES


@<TRIPOS>ATOM
   1 C1            -0.0500     1.4262     0.0962 C.ar    
   2 C2            -0.0209     0.0490     0.0794 C.ar    
   3 C3             1.1868    -0.6170     0.0793 C.ar    
   4 C4             2.3838     0.0940     0.1051 C.ar    
   5 C5             2.3457     1.4829     0.1111 C.ar    
   6 C6             1.1313     2.1584     0.1032 C.ar    
   7 O7             3.4564    -0.7475     0.1361 O.3     
   8 C8             1.5543    -2.0756     0.0441 C.3     
   9 C9             3.0479    -2.0542    -0.3115 C.3     
  10 C10            0.4396    -3.8183     1.0624 C.ar    
  11 C11            1.3007    -2.7630     1.3525 C.ar    
  12 C12            0.7546    -2.8413    -0.9706 C.2     
  13 N13            0.1410    -3.8379    -0.3022 N.am    
  14 O14            0.6758    -2.6083    -2.1583 O.2     
  15 C15            1.7299    -2.5445     2.6428 C.ar    
  16 C16            1.3082    -3.3769     3.6644 C.ar    
  17 C17            0.4549    -4.4295     3.3870 C.ar    
  18 C18            0.0218    -4.6523     2.0967 C.ar    
  19 C19           -0.7372    -4.8263    -0.9330 C.3     
  20 C20           -1.1920     2.4231     0.1213 C.3     
  21 C21           -0.4694     3.7281     0.5318 C.3     
  22 O22            0.8795     3.4970     0.0917 O.3     
  23 C23           -2.1565    -4.3201    -0.9168 C.ar    
  24 C24           -2.6303    -3.5643    -1.9745 C.ar    
  25 C25           -3.9286    -3.0978    -1.9659 C.ar    
  26 C26           -4.7647    -3.3898    -0.8870 C.ar    
  27 C27           -4.2804    -4.1529     0.1769 C.ar    
  28 C28           -2.9818    -4.6179     0.1531 C.ar    
  29 C29           -6.1567    -2.8929    -0.8708 C.2     
  30 N30           -6.9615    -3.1766     0.1724 N.am    
  31 O31           -6.5756    -2.2283    -1.7985 O.2     
  32 C32           -8.2382    -2.6107     0.2448 C.ar    
  33 C33           -9.2862    -3.3280     0.8068 C.ar    
  34 C34          -10.5475    -2.7650     0.8771 C.ar    
  35 C35          -10.7646    -1.4874     0.3874 C.ar    
  36 C36           -9.0495    -4.7179     1.3388 C.3     
  37 C37           -8.4592    -1.3282    -0.2402 C.ar    
  38 C38           -9.7223    -0.7728    -0.1726 C.ar    
  39 F39          -11.5684    -3.4614     1.4231 F       
  40 H40           -0.9450    -0.5098     0.0667 H       
  41 H41            3.2691     2.0430     0.1226 H       
  42 H42            3.1912    -2.1571    -1.3872 H       
  43 H43            3.5856    -2.8338     0.2281 H       
  44 H44            2.3962    -1.7221     2.8575 H       
  45 H45            1.6449    -3.2053     4.6761 H       
  46 H46            0.1267    -5.0800     4.1842 H       
  47 H47           -0.6445    -5.4761     1.8876 H       
  48 H48           -0.4209    -4.9881    -1.9635 H       
  49 H49           -0.6803    -5.7660    -0.3837 H       
  50 H50           -1.6442     2.5221    -0.8655 H       
  51 H51           -1.9386     2.1413     0.8638 H       
  52 H52           -0.9015     4.5868     0.0178 H       
  53 H53           -0.5048     3.8657     1.6125 H       
  54 H54           -1.9822    -3.3387    -2.8085 H       
  55 H55           -4.2971    -2.5076    -2.7919 H       
  56 H56           -4.9222    -4.3824     1.0146 H       
  57 H57           -2.6058    -5.2084     0.9755 H       
  58 H58           -6.6551    -3.7734     0.8731 H       
  59 H59          -11.7501    -1.0490     0.4430 H       
  60 H60           -8.7658    -4.6613     2.3897 H       
  61 H61           -9.9625    -5.3051     1.2401 H       
  62 H62           -8.2490    -5.1927     0.7715 H       
  63 H63           -7.6447    -0.7668    -0.6736 H       
  64 H64           -9.8937     0.2244    -0.5501 H       
@<TRIPOS>BOND
   1    1    2 ar
   2    1    6 ar
   3    1   20 1
   4    2    3 ar
   5    2   40 1
   6    3    4 ar
   7    3    8 1
   8    4    5 ar
   9    4    7 1
  10    5    6 ar
  11    5   41 1
  12    6   22 1
  13    7    9 1
  14    8    9 1
  15    8   11 1
  16    8   12 1
  17    9   42 1
  18    9   43 1
  19   10   11 ar
  20   10   13 1
  21   10   18 ar
  22   11   15 ar
  23   12   13 am
  24   12   14 2
  25   13   19 1
  26   15   16 ar
  27   15   44 1
  28   16   17 ar
  29   16   45 1
  30   17   18 ar
  31   17   46 1
  32   18   47 1
  33   19   23 1
  34   19   48 1
  35   19   49 1
  36   20   21 1
  37   20   50 1
  38   20   51 1
  39   21   22 1
  40   21   52 1
  41   21   53 1
  42   23   24 ar
  43   23   28 ar
  44   24   25 ar
  45   24   54 1
  46   25   26 ar
  47   25   55 1
  48   26   27 ar
  49   26   29 1
  50   27   28 ar
  51   27   56 1
  52   28   57 1
  53   29   30 am
  54   29   31 2
  55   30   32 1
  56   30   58 1
  57   32   33 ar
  58   32   37 ar
  59   33   34 ar
  60   33   36 1
  61   34   35 ar
  62   34   39 1
  63   35   38 ar
  64   35   59 1
  65   36   60 1
  66   36   61 1
  67   36   62 1
  68   37   38 ar
  69   37   63 1
  70   38   64 1

#	End of record

