#	Name: ASD01916418
#	Creating user name:	WinNT
#	Creation time:	15. 06. 2019 20:07

#	Modifying user name:	WinNT
#	Modification time:	15. 06. 2019 20:07

#	Program:	/corina/corina34_cracker 3.40 0067  02.08.2006

@<TRIPOS>MOLECULE
ASD01916418
  35   37    0    0    0
SMALL
NO_CHARGES


@<TRIPOS>ATOM
   1 N1            -0.0169     1.3954     0.0097 N.2     
   2 N2             0.0021    -0.0041     0.0020 N.pl3   
   3 C3             1.2683    -0.4439    -0.0124 C.2     
   4 C4             2.1012     0.6590    -0.0145 C.ar    
   5 C5             3.5003     0.8492    -0.0272 C.ar    
   6 C6             4.0049     2.1082    -0.0256 C.ar    
   7 C7             3.1758     3.2323    -0.0112 C.ar    
   8 C8             1.8220     3.1228     0.0015 C.ar    
   9 C9             1.2261     1.8412     0.0002 C.ar    
  10 C10           -1.1859    -0.8613     0.0095 C.3     
  11 C11           -2.0719    -0.4947     1.2018 C.3     
  12 C12           -3.2655    -1.3560     1.2093 C.1     
  13 C13           -4.2175    -2.0430     1.2153 C.1     
  14 C14           -5.3788    -2.8809     1.2226 C.ar    
  15 C15           -6.3369    -2.7275     2.2254 C.ar    
  16 C16           -7.4533    -3.5447     2.2186 C.ar    
  17 C17           -7.5768    -4.4899     1.2095 C.ar    
  18 C18           -6.5893    -4.5881     0.2467 C.ar    
  19 N19           -5.5382    -3.7944     0.2720 N.ar    
  20 C20           -6.7201    -5.6134    -0.8499 C.3     
  21 F21           -7.4005    -5.0511    -1.9353 F       
  22 F22            1.0501     4.2315     0.0157 F       
  23 H23            1.5821    -1.4772    -0.0204 H       
  24 H24            4.1645    -0.0023    -0.0377 H       
  25 H25            5.0761     2.2452    -0.0354 H       
  26 H26            3.6234     4.2152    -0.0098 H       
  27 H27           -1.7439    -0.7170    -0.9157 H       
  28 H28           -0.8807    -1.9045     0.0908 H       
  29 H29           -1.5139    -0.6390     2.1270 H       
  30 H30           -2.3771     0.5485     1.1205 H       
  31 H31           -6.2087    -1.9817     2.9960 H       
  32 H32           -8.2115    -3.4496     2.9818 H       
  33 H33           -8.4364    -5.1429     1.1769 H       
  34 H34           -5.7279    -5.9327    -1.1690 H       
  35 H35           -7.2767    -6.4738    -0.4784 H       
@<TRIPOS>BOND
   1    1    2 1
   2    1    9 2
   3    2    3 1
   4    2   10 1
   5    3    4 2
   6    3   23 1
   7    4    5 ar
   8    4    9 ar
   9    5    6 ar
  10    5   24 1
  11    6    7 ar
  12    6   25 1
  13    7    8 ar
  14    7   26 1
  15    8    9 ar
  16    8   22 1
  17   10   11 1
  18   10   27 1
  19   10   28 1
  20   11   12 1
  21   11   29 1
  22   11   30 1
  23   12   13 3
  24   13   14 1
  25   14   15 ar
  26   14   19 ar
  27   15   16 ar
  28   15   31 1
  29   16   17 ar
  30   16   32 1
  31   17   18 ar
  32   17   33 1
  33   18   19 ar
  34   18   20 1
  35   20   21 1
  36   20   34 1
  37   20   35 1

#	End of record

