#	Name: ASD04880725
#	Creating user name:	WinNT
#	Creation time:	15. 06. 2019 20:53

#	Modifying user name:	WinNT
#	Modification time:	15. 06. 2019 20:53

#	Program:	/corina/corina34_cracker 3.40 0067  02.08.2006

@<TRIPOS>MOLECULE
ASD04880725
  80   85    0    0    0
SMALL
NO_CHARGES


@<TRIPOS>ATOM
   1 C1             0.0073     1.3689     0.0081 C.ar    
   2 C2            -1.1977     2.0495     0.0703 C.ar    
   3 C3            -1.2127     3.4310     0.1141 C.ar    
   4 C4            -0.0259     4.1376     0.0959 C.ar    
   5 C5             1.1847     3.4593     0.0340 C.ar    
   6 C6             1.1986     2.0712    -0.0099 C.ar    
   7 C7            -0.0446     5.6437     0.1426 C.3     
   8 N8             2.3858     4.1720     0.0155 N.3     
   9 C9             3.1886     3.8820     1.2118 C.3     
  10 C10            3.1480     3.8878    -1.2084 C.3     
  11 C11            4.4153     4.7457    -1.2276 C.3     
  12 N12            5.2182     4.4557    -0.0314 N.3     
  13 C13            4.4560     4.7398     1.1925 C.3     
  14 C14            6.4156     5.1662    -0.0498 C.ar    
  15 C15            6.6486     6.1575     0.8958 C.ar    
  16 C16            7.8328     6.8634     0.8812 C.ar    
  17 C17            8.8031     6.5827    -0.0867 C.ar    
  18 C18            8.5698     5.5851    -1.0382 C.ar    
  19 C19            7.3837     4.8770    -1.0159 C.ar    
  20 N20            7.1489     3.8727    -1.9650 N.am    
  21 C21            7.6313     4.0024    -3.2168 C.2     
  22 C22            7.4936     2.8936    -4.1782 C.2     
  23 O23            8.1803     5.0343    -3.5531 O.2     
  24 C24            6.9786     0.9775    -5.0290 C.2     
  25 O25            7.6051     1.6847    -5.9800 O.3     
  26 C26            7.9349     2.8803    -5.4657 C.2     
  27 N27            6.9067     1.6886    -3.9439 N.2     
  28 C28            6.4419    -0.4211    -5.1928 C.3     
  29 C29            5.3764    -0.6476    -6.2672 C.3     
  30 C30            6.7992    -1.1688    -6.4789 C.3     
  31 C31           10.0695     7.3378    -0.1036 C.2     
  32 N32           11.0035     7.0663    -1.0366 N.am    
  33 O33           10.2712     8.2054     0.7242 O.2     
  34 C34           12.2617     7.8166    -1.0534 C.3     
  35 C35           13.1388     7.3158    -2.2027 C.3     
  36 C36           14.4528     8.0993    -2.2203 C.3     
  37 N37           15.2926     7.6198    -3.3208 N.am    
  38 C38           16.5708     6.0928    -4.6566 C.3     
  39 C39           16.2624     6.5242    -3.2057 C.3     
  40 C40           15.2698     8.1228    -4.5671 C.2     
  41 C41           16.2566     7.3844    -5.4443 C.3     
  42 O42           14.5608     9.0355    -4.9349 O.2     
  43 F43            0.0190     0.0184    -0.0293 F       
  44 Cl44           8.1197     8.1015     2.0639 Cl      
  45 H45           -2.1272     1.4996     0.0843 H       
  46 H46           -2.1538     3.9587     0.1622 H       
  47 H47            2.1383     1.5410    -0.0580 H       
  48 H48           -0.0147     5.9754     1.1805 H       
  49 H49            0.8231     6.0345    -0.3889 H       
  50 H50           -0.9558     6.0107    -0.3299 H       
  51 H51            2.6072     4.1122     2.1045 H       
  52 H52            3.4635     2.8272     1.2183 H       
  53 H53            3.4224     2.8331    -1.2293 H       
  54 H54            2.5369     4.1223    -2.0800 H       
  55 H55            4.9967     4.5155    -2.1204 H       
  56 H56            4.1404     5.8004    -1.2342 H       
  57 H57            4.1816     5.7945     1.2134 H       
  58 H58            5.0671     4.5054     2.0641 H       
  59 H59            5.9003     6.3757     1.6434 H       
  60 H60            9.3167     5.3662    -1.7869 H       
  61 H61            6.6391     3.0844    -1.7209 H       
  62 H62            8.4519     3.6792    -5.9763 H       
  63 H63            6.3641    -1.0052    -4.2758 H       
  64 H64            4.5978    -1.3810    -6.0571 H       
  65 H65            5.0636     0.2150    -6.8555 H       
  66 H66            7.4225    -0.6491    -7.2066 H       
  67 H67            6.9567    -2.2450    -6.4082 H       
  68 H68           10.8426     6.3742    -1.6969 H       
  69 H69           12.0507     8.8768    -1.1928 H       
  70 H70           12.7841     7.6713    -0.1078 H       
  71 H71           13.3498     6.2555    -2.0634 H       
  72 H72           12.6164     7.4610    -3.1483 H       
  73 H73           14.2418     9.1595    -2.3597 H       
  74 H74           14.9751     7.9540    -1.2747 H       
  75 H75           17.6185     5.8125    -4.7659 H       
  76 H76           15.9163     5.2791    -4.9691 H       
  77 H77           17.1706     6.8744    -2.7152 H       
  78 H78           15.8286     5.6934    -2.6493 H       
  79 H79           17.1613     7.9763    -5.5832 H       
  80 H80           15.8054     7.1439    -6.4070 H       
@<TRIPOS>BOND
   1    1    2 ar
   2    1    6 ar
   3    1   43 1
   4    2    3 ar
   5    2   45 1
   6    3    4 ar
   7    3   46 1
   8    4    5 ar
   9    4    7 1
  10    5    6 ar
  11    5    8 1
  12    6   47 1
  13    7   48 1
  14    7   49 1
  15    7   50 1
  16    8   10 1
  17    8    9 1
  18    9   13 1
  19    9   51 1
  20    9   52 1
  21   10   11 1
  22   10   53 1
  23   10   54 1
  24   11   12 1
  25   11   55 1
  26   11   56 1
  27   12   13 1
  28   12   14 1
  29   13   57 1
  30   13   58 1
  31   14   15 ar
  32   14   19 ar
  33   15   16 ar
  34   15   59 1
  35   16   17 ar
  36   16   44 1
  37   17   18 ar
  38   17   31 1
  39   18   19 ar
  40   18   60 1
  41   19   20 1
  42   20   21 am
  43   20   61 1
  44   21   22 1
  45   21   23 2
  46   22   27 1
  47   22   26 2
  48   24   25 1
  49   24   27 2
  50   24   28 1
  51   25   26 1
  52   26   62 1
  53   28   29 1
  54   28   30 1
  55   28   63 1
  56   29   30 1
  57   29   64 1
  58   29   65 1
  59   30   66 1
  60   30   67 1
  61   31   32 am
  62   31   33 2
  63   32   34 1
  64   32   68 1
  65   34   35 1
  66   34   69 1
  67   34   70 1
  68   35   36 1
  69   35   71 1
  70   35   72 1
  71   36   37 1
  72   36   73 1
  73   36   74 1
  74   37   40 am
  75   37   39 1
  76   38   39 1
  77   38   41 1
  78   38   75 1
  79   38   76 1
  80   39   77 1
  81   39   78 1
  82   40   41 1
  83   40   42 2
  84   41   79 1
  85   41   80 1

#	End of record

