#	Name: ASD05740027
#	Creating user name:	WinNT
#	Creation time:	15. 06. 2019 21:02

#	Modifying user name:	WinNT
#	Modification time:	15. 06. 2019 21:02

#	Program:	/corina/corina34_cracker 3.40 0067  02.08.2006

@<TRIPOS>MOLECULE
ASD05740027
  52   53    0    0    0
SMALL
NO_CHARGES


@<TRIPOS>ATOM
   1 C1            -0.8579     1.0681    -0.2116 C.3     
   2 C2            -1.6287    -1.6216     3.1094 C.ar    
   3 C3             1.6871    -1.5915    -8.3303 C.3     
   4 C4            -1.3801    -2.9885     2.9832 C.ar    
   5 C5            -1.4655    -0.7875     2.0420 C.ar    
   6 C6            -1.0473    -1.3062     0.8106 C.ar    
   7 C7            -0.7889    -2.6838     0.6792 C.ar    
   8 C8            -0.9606    -3.5183     1.7716 C.ar    
   9 C9            -0.8766    -0.4321    -0.3536 C.2     
  10 C10           -0.7351    -1.0338    -1.5755 C.2     
  11 C11           -0.7669    -2.5018    -1.6115 C.2     
  12 O12           -0.3722    -3.1795    -0.5104 O.3     
  13 N13           -0.5675    -0.2804    -2.7429 N.pl3   
  14 C14            0.5689    -0.4640    -3.5362 C.ar    
  15 C15            1.5908    -1.3016    -3.1048 C.ar    
  16 O16           -1.1398    -3.0936    -2.6083 O.2     
  17 C17            1.8070     0.0002    -5.5437 C.ar    
  18 C18            2.8266    -0.8337    -5.1028 C.ar    
  19 C19            2.7142    -1.4831    -3.8879 C.ar    
  20 N20           -1.5538    -3.8274     4.0819 N.pl3   
  21 N21            1.9216     0.6564    -6.7734 N.am    
  22 S22            2.6703    -0.0939    -8.0457 S.o2    
  23 O23            3.9575    -0.4299    -7.5462 O.2     
  24 O24            2.5186     0.8153    -9.1272 O.2     
  25 C25            0.6758     0.1859    -4.7592 C.ar    
  26 F26           -0.3180     0.9961    -5.1847 F       
  27 C27           -1.9960    -3.2734     5.3640 C.3     
  28 H28            0.1656     1.4047    -0.0467 H       
  29 H29           -1.2482     1.5240    -1.1214 H       
  30 H30           -1.4777     1.3605     0.6361 H       
  31 H31           -1.9570    -1.2215     4.0573 H       
  32 H32            0.6608    -1.3124    -8.5691 H       
  33 H33            2.1135    -2.1536    -9.1611 H       
  34 H34            1.6961    -2.2083    -7.4316 H       
  35 H35           -1.6586     0.2700     2.1466 H       
  36 H36           -0.7684    -4.5771     1.6804 H       
  37 H37           -1.2398     0.3692    -3.0016 H       
  38 H38            1.5066    -1.8108    -2.1561 H       
  39 H39            3.7084    -0.9750    -5.7102 H       
  40 H40            3.5070    -2.1340    -3.5498 H       
  41 H41           -1.3818    -4.7784     3.9980 H       
  42 H42            1.5626     1.5511    -6.8810 H       
  43 H43           -2.0745    -4.0749     6.0985 H       
  44 H44           -1.2733    -2.5339     5.7089 H       
  45 H45           -2.9693    -2.7990     5.2384 H       
  46 C46            9.4847     9.2204    12.9668 C.3     
  47 N47            9.5046     7.7556    12.9587 N.2     
  48 C48           10.0453     7.1431    12.0127 C.1     
  49 O49           10.5678     6.5511    11.0985 O.2     
  50 H50           10.5073     9.5977    12.9590 H       
  51 H51            8.9575     9.5815    12.0837 H       
  52 H52            8.9745     9.5720    13.8635 H       
@<TRIPOS>BOND
   1    1    9 1
   2    1   28 1
   3    1   29 1
   4    1   30 1
   5    2    4 ar
   6    2    5 ar
   7    2   31 1
   8    3   22 1
   9    3   32 1
  10    3   33 1
  11    3   34 1
  12    4   20 1
  13    4    8 ar
  14    5    6 ar
  15    5   35 1
  16    6    7 ar
  17    6    9 1
  18    7    8 ar
  19    7   12 1
  20    8   36 1
  21    9   10 2
  22   10   11 1
  23   10   13 1
  24   11   12 1
  25   11   16 2
  26   13   14 1
  27   13   37 1
  28   14   15 ar
  29   14   25 ar
  30   15   19 ar
  31   15   38 1
  32   17   18 ar
  33   17   21 1
  34   17   25 ar
  35   18   19 ar
  36   18   39 1
  37   19   40 1
  38   20   27 1
  39   20   41 1
  40   21   22 am
  41   21   42 1
  42   22   23 2
  43   22   24 2
  44   25   26 1
  45   27   43 1
  46   27   44 1
  47   27   45 1
  48   46   47 1
  49   46   50 1
  50   46   51 1
  51   46   52 1
  52   47   48 2
  53   48   49 2

#	End of record

