#	Name: ASD05872034
#	Creating user name:	WinNT
#	Creation time:	15. 06. 2019 21:04

#	Modifying user name:	WinNT
#	Modification time:	15. 06. 2019 21:04

#	Program:	/corina/corina34_cracker 3.40 0067  02.08.2006

@<TRIPOS>MOLECULE
ASD05872034
  80   84    0    0    0
SMALL
NO_CHARGES


@<TRIPOS>ATOM
   1 C1            -0.0168     1.3909     0.0097 C.ar    
   2 C2             0.0021    -0.0041     0.0020 C.ar    
   3 C3            -1.1845    -0.7121     0.0095 C.ar    
   4 C4            -2.3952    -0.0265     0.0248 C.ar    
   5 C5            -2.4171     1.3754     0.0325 C.ar    
   6 C6            -1.2170     2.0760     0.0306 C.ar    
   7 C7            -3.8128    -0.4423     0.0361 C.2     
   8 C8            -4.5353     0.7114     0.0492 C.2     
   9 O9            -3.7097     1.7643     0.0470 O.3     
  10 O10            1.1546     2.0819     0.0022 O.3     
  11 O11            1.1896    -0.6677    -0.0133 O.3     
  12 C12           -6.0401     0.7908     0.0644 C.3     
  13 O13           -6.5025     0.8090     1.4164 O.3     
  14 C14           -7.8475     0.8791     1.6083 C.ar    
  15 C15           -8.3667     0.9005     2.9031 C.ar    
  16 C16           -9.7313     0.9716     3.1104 C.ar    
  17 C17          -10.5973     1.0229     2.0249 C.ar    
  18 C18          -10.0729     1.0017     0.7248 C.ar    
  19 C19           -8.6980     0.9349     0.5208 C.ar    
  20 O20          -11.9415     1.0949     1.9226 O.3     
  21 C21          -12.3321     1.1223     0.6432 C.2     
  22 C22          -11.2441     1.0687    -0.1733 C.2     
  23 C23          -13.7626     1.2013     0.1759 C.3     
  24 C24          -11.2363     1.0758    -1.6423 C.2     
  25 O25          -11.1771     2.1302    -2.2447 O.2     
  26 O26           -7.5238     0.8506     3.9692 O.3     
  27 C27           -4.3345    -1.8156     0.0337 C.2     
  28 O28           -4.5403    -2.3895     1.0855 O.2     
  29 C29            1.0667     3.5081     0.0107 C.3     
  30 C30           -8.1186     0.8760     5.2683 C.3     
  31 N31          -14.3017    -0.1560     0.0176 N.3     
  32 C32          -15.7544    -0.1232    -0.2056 C.3     
  33 C33          -16.2640    -1.5503    -0.4243 C.3     
  34 O34          -15.9073    -2.3563     0.7020 O.3     
  35 C35          -14.4996    -2.4110     0.9481 C.3     
  36 C36          -13.9721    -0.9927     1.1807 C.3     
  37 O37           -4.5850    -2.4395    -1.1349 O.3     
  38 C38           -5.3203    -4.3345    -2.4760 C.3     
  39 C39           -5.0991    -3.7954    -1.0613 C.3     
  40 O40          -11.2947    -0.0868    -2.3224 O.3     
  41 C41          -11.3550    -1.4128    -4.3640 C.3     
  42 C42          -11.2830    -0.0038    -3.7719 C.3     
  43 O43            1.7244    -0.9664     1.3218 O.3     
  44 S44            3.0529    -1.7088     1.3047 S.o2    
  45 O45            3.3178    -2.0885     2.6481 O.2     
  46 O46            2.9783    -2.6402     0.2341 O.2     
  47 O47            4.1275    -0.7008     0.9231 O.3     
  48 Na48           4.6105     0.5599     2.3852 Du      
  49 H49           -1.1722    -1.7920     0.0033 H       
  50 H50           -1.2222     3.1560     0.0365 H       
  51 H51           -6.3611     1.7014    -0.4416 H       
  52 H52           -6.4550    -0.0761    -0.4498 H       
  53 H53          -10.1246     0.9870     4.1161 H       
  54 H54           -8.2983     0.9188    -0.4824 H       
  55 H55          -14.3557     1.7443     0.9117 H       
  56 H56          -13.8042     1.7225    -0.7805 H       
  57 H57            2.0700     3.9341     0.0034 H       
  58 H58            0.5230     3.8439    -0.8723 H       
  59 H59            0.5400     3.8343     0.9075 H       
  60 H60           -8.6890     1.7970     5.3888 H       
  61 H61           -8.7835     0.0196     5.3803 H       
  62 H62           -7.3370     0.8308     6.0267 H       
  63 H63          -16.2468     0.3096     0.6652 H       
  64 H64          -15.9738     0.4805    -1.0862 H       
  65 H65          -17.3484    -1.5368    -0.5334 H       
  66 H66          -15.8120    -1.9640    -1.3257 H       
  67 H67          -14.3080    -3.0200     1.8315 H       
  68 H68          -13.9963    -2.8498     0.0866 H       
  69 H69          -12.8905    -1.0236     1.3120 H       
  70 H70          -14.4360    -0.5737     2.0736 H       
  71 H71           -4.3741    -4.3336    -3.0172 H       
  72 H72           -5.7062    -5.3524    -2.4207 H       
  73 H73           -6.0380    -3.7016    -2.9979 H       
  74 H74           -4.3814    -4.4283    -0.5394 H       
  75 H75           -6.0453    -3.7964    -0.5201 H       
  76 H76          -11.3462    -1.3505    -5.4522 H       
  77 H77          -10.4963    -1.9931    -4.0263 H       
  78 H78          -12.2737    -1.8985    -4.0353 H       
  79 H79          -12.1416     0.5765    -4.1096 H       
  80 H80          -10.3642     0.4819    -4.1006 H       
@<TRIPOS>BOND
   1    1    2 ar
   2    1   10 1
   3    1    6 ar
   4    2    3 ar
   5    2   11 1
   6    3    4 ar
   7    3   49 1
   8    4    5 ar
   9    4    7 1
  10    5    6 ar
  11    5    9 1
  12    6   50 1
  13    7    8 2
  14    7   27 1
  15    8    9 1
  16    8   12 1
  17   10   29 1
  18   11   43 1
  19   12   13 1
  20   12   51 1
  21   12   52 1
  22   13   14 1
  23   14   15 ar
  24   14   19 ar
  25   15   16 ar
  26   15   26 1
  27   16   17 ar
  28   16   53 1
  29   17   18 ar
  30   17   20 1
  31   18   19 ar
  32   18   22 1
  33   19   54 1
  34   20   21 1
  35   21   22 2
  36   21   23 1
  37   22   24 1
  38   23   31 1
  39   23   55 1
  40   23   56 1
  41   24   25 2
  42   24   40 1
  43   26   30 1
  44   27   28 2
  45   27   37 1
  46   29   57 1
  47   29   58 1
  48   29   59 1
  49   30   60 1
  50   30   61 1
  51   30   62 1
  52   31   32 1
  53   31   36 1
  54   32   33 1
  55   32   63 1
  56   32   64 1
  57   33   34 1
  58   33   65 1
  59   33   66 1
  60   34   35 1
  61   35   36 1
  62   35   67 1
  63   35   68 1
  64   36   69 1
  65   36   70 1
  66   37   39 1
  67   38   39 1
  68   38   71 1
  69   38   72 1
  70   38   73 1
  71   39   74 1
  72   39   75 1
  73   40   42 1
  74   41   42 1
  75   41   76 1
  76   41   77 1
  77   41   78 1
  78   42   79 1
  79   42   80 1
  80   43   44 1
  81   44   45 2
  82   44   46 2
  83   44   47 1
  84   47   48 1

#	End of record

