#	Name: ASD01915821
#	Creating user name:	WinNT
#	Creation time:	15. 06. 2019 20:06

#	Modifying user name:	WinNT
#	Modification time:	15. 06. 2019 20:06

#	Program:	/corina/corina34_cracker 3.40 0067  02.08.2006

@<TRIPOS>MOLECULE
ASD01915821
  41   44    0    0    0
SMALL
NO_CHARGES


@<TRIPOS>ATOM
   1 C1             0.0187     1.5365     0.0576 C.2     
   2 N2             0.0890     0.1648    -0.0398 N.pl3   
   3 C3            -1.1258    -0.6528    -0.1432 C.3     
   4 C4            -2.2688     0.0457     0.5914 C.3     
   5 N5            -2.3739     1.4602     0.2505 N.am    
   6 C6            -1.2736     2.2373     0.1034 C.2     
   7 C7             1.3030     2.0000     0.1088 C.2     
   8 C8             2.1056     0.8526     0.0496 C.2     
   9 N9             1.3139    -0.1912    -0.0320 N.2     
  10 C10            3.6121     0.8226     0.0746 C.3     
  11 O11            4.1137     2.1573     0.1692 O.3     
  12 C12            5.4638     2.3081     0.2030 C.ar    
  13 O13           -1.3504     3.4482     0.0141 O.2     
  14 C14            6.0193     3.5760     0.2942 C.ar    
  15 C15            6.2889     1.1939     0.1520 C.ar    
  16 C16            7.6611     1.3498     0.1865 C.ar    
  17 C17            8.2123     2.6150     0.2717 C.ar    
  18 C18            7.3921     3.7266     0.3284 C.ar    
  19 C19           -3.6445     2.0296     0.0706 C.2     
  20 N20           -4.3963     2.6036     1.0252 N.2     
  21 C21           -5.5149     3.0237     0.4994 C.2     
  22 N22           -5.5152     2.7301    -0.8180 N.pl3   
  23 C23           -4.3261     2.1029    -1.0952 C.2     
  24 C24           -3.8720     1.5878    -2.4367 C.3     
  25 H25           -1.3912    -0.7790    -1.1928 H       
  26 H26           -0.9466    -1.6291     0.3072 H       
  27 H27           -3.2060    -0.4488     0.3358 H       
  28 H28           -2.1058    -0.0466     1.6652 H       
  29 H29            1.6289     3.0273     0.1793 H       
  30 H30            3.9497     0.2457     0.9355 H       
  31 H31            3.9815     0.3596    -0.8405 H       
  32 H32            5.3791     4.4447     0.3382 H       
  33 H33            5.8588     0.2055     0.0858 H       
  34 H34            8.3038     0.4828     0.1472 H       
  35 H35            9.2853     2.7348     0.2985 H       
  36 H36            7.8251     4.7138     0.3946 H       
  37 H37           -6.3102     3.5244     1.0317 H       
  38 H38           -6.2227     2.9281    -1.4514 H       
  39 H39           -3.3824     2.3910    -2.9875 H       
  40 H40           -3.1704     0.7663    -2.2920 H       
  41 H41           -4.7347     1.2337    -3.0010 H       
@<TRIPOS>BOND
   1    1    2 1
   2    1    7 2
   3    1    6 1
   4    2    3 1
   5    2    9 1
   6    3    4 1
   7    3   25 1
   8    3   26 1
   9    4    5 1
  10    4   27 1
  11    4   28 1
  12    5    6 am
  13    5   19 1
  14    6   13 2
  15    7    8 1
  16    7   29 1
  17    8    9 2
  18    8   10 1
  19   10   11 1
  20   10   30 1
  21   10   31 1
  22   11   12 1
  23   12   14 ar
  24   12   15 ar
  25   14   18 ar
  26   14   32 1
  27   15   16 ar
  28   15   33 1
  29   16   17 ar
  30   16   34 1
  31   17   18 ar
  32   17   35 1
  33   18   36 1
  34   19   20 1
  35   19   23 2
  36   20   21 2
  37   21   22 1
  38   21   37 1
  39   22   23 1
  40   22   38 1
  41   23   24 1
  42   24   39 1
  43   24   40 1
  44   24   41 1

#	End of record

