#	Name: ASD02198473
#	Creating user name:	WinNT
#	Creation time:	15. 06. 2019 20:19

#	Modifying user name:	WinNT
#	Modification time:	15. 06. 2019 20:19

#	Program:	/corina/corina34_cracker 3.40 0067  02.08.2006

@<TRIPOS>MOLECULE
ASD02198473
  41   44    0    0    0
SMALL
NO_CHARGES


@<TRIPOS>ATOM
   1 C1             0.0819     1.0030    -0.1368 C.2     
   2 C2             0.3475    -0.3247    -0.2221 C.2     
   3 N3             1.6215    -0.7782    -0.2225 N.pl3   
   4 N4             2.6431    -0.0079    -0.1448 N.2     
   5 C5             2.5275     1.2996    -0.0577 C.2     
   6 C6             1.1799     1.8923    -0.0491 C.2     
   7 C7             1.8353    -2.1577    -0.3117 C.ar    
   8 C8             0.9752    -4.3962    -0.3283 C.ar    
   9 C9             2.2582    -4.8865    -0.4883 C.ar    
  10 C10            3.3312    -4.0162    -0.5544 C.ar    
  11 C11            3.1237    -2.6540    -0.4667 C.ar    
  12 C12            3.7270     2.1568     0.0308 C.2     
  13 N13            4.8639     1.8917     0.7413 N.pl3   
  14 N14            5.7463     2.9621     0.5495 N.2     
  15 C15            5.1786     3.8395    -0.2392 C.2     
  16 C16            3.9129     3.3714    -0.5923 C.2     
  17 C17            5.1033     0.7537     1.5221 C.ar    
  18 C18            4.1048     0.2534     2.3473 C.ar    
  19 O19            1.0162     3.1005     0.0301 O.2     
  20 C20            0.7605    -3.0347    -0.2399 C.ar    
  21 C21            6.3379     0.1202     1.4684 C.ar    
  22 C22            6.5709    -1.0017     2.2395 C.ar    
  23 C23            5.5763    -1.4941     3.0646 C.ar    
  24 C24            4.3440    -0.8688     3.1160 C.ar    
  25 C25           -0.1909    -5.3482    -0.2568 C.3     
  26 F26            0.2726    -6.6629    -0.3746 F       
  27 F27           -0.8453    -5.1926     0.9699 F       
  28 F28           -1.0824    -5.0728    -1.2992 F       
  29 H29           -0.9339     1.3698    -0.1402 H       
  30 H30           -0.4690    -1.0284    -0.2903 H       
  31 H31            2.4228    -5.9514    -0.5613 H       
  32 H32            4.3321    -4.4025    -0.6790 H       
  33 H33            3.9620    -1.9750    -0.5188 H       
  34 H34            5.6188     4.7702    -0.5653 H       
  35 H35            3.2037     3.8738    -1.2334 H       
  36 H36            3.1422     0.7415     2.3882 H       
  37 H37           -0.2417    -2.6524    -0.1146 H       
  38 H38            7.1149     0.5041     0.8240 H       
  39 H39            7.5307    -1.4950     2.1979 H       
  40 H40            5.7608    -2.3717     3.6664 H       
  41 H41            3.5694    -1.2556     3.7616 H       
@<TRIPOS>BOND
   1    1    2 2
   2    1    6 1
   3    1   29 1
   4    2    3 1
   5    2   30 1
   6    3    4 1
   7    3    7 1
   8    4    5 2
   9    5    6 1
  10    5   12 1
  11    6   19 2
  12    7   20 ar
  13    7   11 ar
  14    8    9 ar
  15    8   25 1
  16    8   20 ar
  17    9   10 ar
  18    9   31 1
  19   10   11 ar
  20   10   32 1
  21   11   33 1
  22   12   13 1
  23   12   16 2
  24   13   14 1
  25   13   17 1
  26   14   15 2
  27   15   16 1
  28   15   34 1
  29   16   35 1
  30   17   21 ar
  31   17   18 ar
  32   18   24 ar
  33   18   36 1
  34   20   37 1
  35   21   22 ar
  36   21   38 1
  37   22   23 ar
  38   22   39 1
  39   23   24 ar
  40   23   40 1
  41   24   41 1
  42   25   26 1
  43   25   27 1
  44   25   28 1

#	End of record

