#	Name: ASD02030279
#	Creating user name:	WinNT
#	Creation time:	15. 06. 2019 20:15

#	Modifying user name:	WinNT
#	Modification time:	15. 06. 2019 20:15

#	Program:	/corina/corina34_cracker 3.40 0067  02.08.2006

@<TRIPOS>MOLECULE
ASD02030279
  55   59    0    0    0
SMALL
NO_CHARGES


@<TRIPOS>ATOM
   1 N1            -0.2092     1.4214    -0.1414 N.am    
   2 C2            -0.0189    -0.0119     0.1215 C.3     
   3 C3            -0.9155    -0.4177     1.2978 C.3     
   4 N4            -2.2745     0.0820     1.0465 N.am    
   5 C5            -2.4648     1.5153     0.7836 C.3     
   6 C6            -1.5689     1.9220    -0.3871 C.3     
   7 C7             0.8438     2.2627    -0.1514 C.2     
   8 C8             2.1863     1.7711     0.2247 C.2     
   9 N9             3.2650     2.5083     0.3791 N.2     
  10 N10            2.5190     0.4915     0.4752 N.2     
  11 C11            3.7935     0.4719     0.7720 C.2     
  12 N12            4.2464     1.7408     0.7078 N.pl3   
  13 C13            5.5621     2.1545     0.9566 C.ar    
  14 O14            0.6895     3.4257    -0.4697 O.2     
  15 C15           -3.3275    -0.7593     1.0566 C.2     
  16 C16           -4.6998    -0.2279     0.9124 C.ar    
  17 O17           -3.1490    -1.9548     1.1842 O.2     
  18 C18            5.8996     3.4972     0.8560 C.ar    
  19 C19            7.1984     3.9021     1.1020 C.ar    
  20 C20            8.1609     2.9699     1.4477 C.ar    
  21 C21            7.8267     1.6319     1.5480 C.ar    
  22 C22            6.5294     1.2227     1.3099 C.ar    
  23 C23           -1.5422     3.4470    -0.5077 C.3     
  24 Cl24           7.6222     5.5809     0.9765 Cl      
  25 C25           -5.6683    -0.9691     0.2390 C.ar    
  26 C26           -6.9588    -0.4611     0.1076 C.ar    
  27 C27           -7.2735     0.7861     0.6507 C.ar    
  28 C28           -6.3086     1.5161     1.3166 C.ar    
  29 C29           -5.0295     1.0159     1.4559 C.ar    
  30 C30           -7.9931    -1.2409    -0.6061 C.2     
  31 N31           -9.2273    -0.8687    -0.7900 N.2     
  32 C32          -10.0077    -1.6935    -1.4496 C.2     
  33 C33           -9.4385    -2.8317    -1.8601 C.2     
  34 S34           -7.7513    -2.8192    -1.3504 S.3     
  35 H35           -0.2942    -0.5859    -0.7633 H       
  36 H36            1.0243    -0.2022     0.3740 H       
  37 H37           -0.9354    -1.5041     1.3849 H       
  38 H38           -0.5298     0.0186     2.2192 H       
  39 H39           -3.5080     1.7056     0.5311 H       
  40 H40           -2.1895     2.0892     1.6685 H       
  41 H41           -1.9523     1.4863    -1.3097 H       
  42 H42            4.3761    -0.4014     1.0256 H       
  43 H43            5.1486     4.2246     0.5854 H       
  44 H44            9.1751     3.2880     1.6392 H       
  45 H45            8.5802     0.9065     1.8174 H       
  46 H46            6.2693     0.1774     1.3889 H       
  47 H47           -1.0458     3.8719     0.3647 H       
  48 H48           -0.9989     3.7308    -1.4090 H       
  49 H49           -2.5631     3.8249    -0.5647 H       
  50 H50           -5.4197    -1.9332    -0.1796 H       
  51 H51           -8.2736     1.1810     0.5494 H       
  52 H52           -6.5572     2.4804     1.7345 H       
  53 H53           -4.2797     1.5916     1.9781 H       
  54 H54          -11.0448    -1.4668    -1.6479 H       
  55 H55           -9.9272    -3.6206    -2.4127 H       
@<TRIPOS>BOND
   1    1    2 1
   2    1    7 am
   3    1    6 1
   4    2    3 1
   5    2   35 1
   6    2   36 1
   7    3    4 1
   8    3   37 1
   9    3   38 1
  10    4    5 1
  11    4   15 am
  12    5    6 1
  13    5   39 1
  14    5   40 1
  15    6   23 1
  16    6   41 1
  17    7    8 1
  18    7   14 2
  19    8    9 2
  20    8   10 1
  21    9   12 1
  22   10   11 2
  23   11   12 1
  24   11   42 1
  25   12   13 1
  26   13   18 ar
  27   13   22 ar
  28   15   16 1
  29   15   17 2
  30   16   25 ar
  31   16   29 ar
  32   18   19 ar
  33   18   43 1
  34   19   20 ar
  35   19   24 1
  36   20   21 ar
  37   20   44 1
  38   21   22 ar
  39   21   45 1
  40   22   46 1
  41   23   47 1
  42   23   48 1
  43   23   49 1
  44   25   26 ar
  45   25   50 1
  46   26   27 ar
  47   26   30 1
  48   27   28 ar
  49   27   51 1
  50   28   29 ar
  51   28   52 1
  52   29   53 1
  53   30   31 2
  54   30   34 1
  55   31   32 1
  56   32   33 2
  57   32   54 1
  58   33   34 1
  59   33   55 1

#	End of record

