#	Name: ASD05720196
#	Creating user name:	WinNT
#	Creation time:	15. 06. 2019 21:02

#	Modifying user name:	WinNT
#	Modification time:	15. 06. 2019 21:02

#	Program:	/corina/corina34_cracker 3.40 0067  02.08.2006

@<TRIPOS>MOLECULE
ASD05720196
  62   62    0    0    0
SMALL
NO_CHARGES


@<TRIPOS>ATOM
   1 C1            -0.0187     1.5258     0.0104 C.3     
   2 C2             0.0021    -0.0041     0.0020 C.3     
   3 C3             0.7421    -0.5109     1.2415 C.3     
   4 S4            -1.6997    -0.6320     0.0149 S.o     
   5 O5            -1.6913    -2.0286    -0.2471 O.2     
   6 N6            -2.3418     0.0035    -1.3730 N.am    
   7 C7             0.7182    -0.4975    -1.2568 C.3     
   8 C8            -3.7338    -0.2785    -1.7322 C.3     
   9 C9            -3.8551    -0.3918    -3.2532 C.3     
  10 C10           -4.3492     2.1693    -1.6081 C.2     
  11 C11           -4.6160     0.8396    -1.2398 C.2     
  12 C12           -5.6822     0.5716    -0.4323 C.2     
  13 C13           -6.4881     1.6291     0.0122 C.2     
  14 C14           -6.2036     2.8986    -0.3610 C.2     
  15 N15           -5.1421     3.1634    -1.1648 N.am    
  16 O16           -3.3955     2.4238    -2.3261 O.2     
  17 C17           -4.8555     4.5464    -1.5538 C.3     
  18 C18           -5.5968     4.8753    -2.8512 C.3     
  19 O19           -3.1107    -1.5239    -3.7074 O.3     
  20 Si20          -3.1649    -1.7491    -5.3219 Si      
  21 C21           -4.9319    -2.0034    -5.8545 C.3     
  22 C22           -2.4666    -0.2511    -6.1816 C.3     
  23 C23           -2.1579    -3.2500    -5.7736 C.3     
  24 C24           -2.7313    -4.4803    -5.0675 C.3     
  25 C25           -2.2087    -3.4613    -7.2881 C.3     
  26 C26           -0.7067    -3.0411    -5.3362 C.3     
  27 H27            1.0039     1.9031     0.0027 H       
  28 H28           -0.5459     1.8868    -0.8726 H       
  29 H29           -0.5289     1.8773     0.9072 H       
  30 H30            0.2319    -0.1594     2.1383 H       
  31 H31            0.7568    -1.6008     1.2356 H       
  32 H32            1.7647    -0.1336     1.2338 H       
  33 H33           -1.7962     0.5625    -1.9482 H       
  34 H34            1.7408    -0.1202    -1.2645 H       
  35 H35            0.7330    -1.5874    -1.2628 H       
  36 H36            0.1910    -0.1364    -2.1398 H       
  37 H37           -4.0449    -1.2163    -1.2720 H       
  38 H38           -4.9034    -0.5130    -3.5260 H       
  39 H39           -3.4611     0.5122    -3.7174 H       
  40 H40           -5.9032    -0.4440    -0.1389 H       
  41 H41           -7.3356     1.4308     0.6517 H       
  42 H42           -6.8278     3.7096    -0.0157 H       
  43 H43           -5.1866     5.2218    -0.7650 H       
  44 H44           -3.7831     4.6658    -1.7079 H       
  45 H45           -5.2657     4.1999    -3.6401 H       
  46 H46           -6.6693     4.7560    -2.6972 H       
  47 H47           -5.3836     5.9043    -3.1407 H       
  48 H48           -5.5210    -1.1253    -5.5901 H       
  49 H49           -4.9681    -2.1540    -6.9334 H       
  50 H50           -5.3404    -2.8799    -5.3514 H       
  51 H51           -1.4328    -0.1022    -5.8700 H       
  52 H52           -2.5028    -0.4016    -7.2606 H       
  53 H53           -3.0558     0.6271    -5.9173 H       
  54 H54           -3.7652    -4.6291    -5.3791 H       
  55 H55           -2.1422    -5.3584    -5.3318 H       
  56 H56           -2.6951    -4.3297    -3.9886 H       
  57 H57           -1.8002    -2.5848    -7.7911 H       
  58 H58           -1.6196    -4.3394    -7.5524 H       
  59 H59           -3.2426    -3.6101    -7.5997 H       
  60 H60           -0.6705    -2.8906    -4.2573 H       
  61 H61           -0.1176    -3.9193    -5.6005 H       
  62 H62           -0.2982    -2.1646    -5.8393 H       
@<TRIPOS>BOND
   1    1    2 1
   2    1   27 1
   3    1   28 1
   4    1   29 1
   5    2    3 1
   6    2    4 1
   7    2    7 1
   8    3   30 1
   9    3   31 1
  10    3   32 1
  11    4    5 2
  12    4    6 am
  13    6    8 1
  14    6   33 1
  15    7   34 1
  16    7   35 1
  17    7   36 1
  18    8    9 1
  19    8   11 1
  20    8   37 1
  21    9   19 1
  22    9   38 1
  23    9   39 1
  24   10   11 1
  25   10   15 am
  26   10   16 2
  27   11   12 2
  28   12   13 1
  29   12   40 1
  30   13   14 2
  31   13   41 1
  32   14   15 1
  33   14   42 1
  34   15   17 1
  35   17   18 1
  36   17   43 1
  37   17   44 1
  38   18   45 1
  39   18   46 1
  40   18   47 1
  41   19   20 1
  42   20   21 1
  43   20   22 1
  44   20   23 1
  45   21   48 1
  46   21   49 1
  47   21   50 1
  48   22   51 1
  49   22   52 1
  50   22   53 1
  51   23   24 1
  52   23   26 1
  53   23   25 1
  54   24   54 1
  55   24   55 1
  56   24   56 1
  57   25   57 1
  58   25   58 1
  59   25   59 1
  60   26   60 1
  61   26   61 1
  62   26   62 1

#	End of record

