#	Name: ASD01000023
#	Creating user name:	WinNT
#	Creation time:	15. 06. 2019 18:54

#	Modifying user name:	WinNT
#	Modification time:	15. 06. 2019 18:54

#	Program:	/corina/corina34_cracker 3.40 0067  02.08.2006

@<TRIPOS>MOLECULE
ASD01000023
  42   43    0    0    0
SMALL
NO_CHARGES


@<TRIPOS>ATOM
   1 C1            -0.7230     1.6857    -0.2283 C.ar    
   2 C2            -0.5236     0.3233    -0.0600 C.ar    
   3 C3            -1.5948    -0.5456    -0.1410 C.ar    
   4 C4            -2.8644    -0.0583    -0.3894 C.ar    
   5 C5            -3.0657     1.2995    -0.5579 C.ar    
   6 C6            -1.9991     2.1729    -0.4718 C.ar    
   7 C7            -1.3789    -2.0259     0.0412 C.3     
   8 N8            -2.5018    -2.5543     0.8340 N.am    
   9 C9            -1.1572    -2.6376    -1.3273 C.2     
  10 C10           -1.9991    -3.6179    -1.7215 C.2     
  11 N11           -3.0141    -4.0417    -0.9138 N.am    
  12 C12           -3.2554    -3.5372     0.3027 C.2     
  13 C13           -0.1053    -2.1971    -2.1634 C.2     
  14 O14            0.7974    -1.3072    -1.7002 O.3     
  15 S15           -4.5638    -4.1616     1.2134 S.2     
  16 O16           -0.0140    -2.6203    -3.3006 O.2     
  17 O17            0.3290     2.5424    -0.1492 O.3     
  18 C18            1.8333    -0.9062    -2.5992 C.3     
  19 C19            2.7531     0.0982    -1.9019 C.3     
  20 C20           -3.2287    -6.4661    -1.1545 C.3     
  21 C21           -3.8890    -5.1089    -1.4056 C.3     
  22 C22           -1.8146    -4.2533    -3.0755 C.3     
  23 H23            0.4681    -0.0579     0.1337 H       
  24 H24           -3.7005    -0.7391    -0.4522 H       
  25 H25           -4.0584     1.6777    -0.7526 H       
  26 H26           -2.1569     3.2332    -0.6031 H       
  27 H27           -0.4656    -2.1604     0.6208 H       
  28 H28           -2.6942    -2.2036     1.7177 H       
  29 H29            0.7698     2.7030    -0.9947 H       
  30 H30            2.4113    -1.7798    -2.9005 H       
  31 H31            1.3902    -0.4421    -3.4803 H       
  32 H32            3.1962    -0.3659    -1.0207 H       
  33 H33            3.5432     0.4041    -2.5876 H       
  34 H34            2.1751     0.9718    -1.6006 H       
  35 H35           -2.2741    -6.5083    -1.6789 H       
  36 H36           -3.0619    -6.5967    -0.0852 H       
  37 H37           -3.8797    -7.2601    -1.5203 H       
  38 H38           -4.8436    -5.0668    -0.8811 H       
  39 H39           -4.0558    -4.9783    -2.4748 H       
  40 H40           -0.7986    -4.6386    -3.1606 H       
  41 H41           -2.5247    -5.0720    -3.1924 H       
  42 H42           -1.9873    -3.5089    -3.8528 H       
@<TRIPOS>BOND
   1    1    2 ar
   2    1   17 1
   3    1    6 ar
   4    2    3 ar
   5    2   23 1
   6    3    4 ar
   7    3    7 1
   8    4    5 ar
   9    4   24 1
  10    5    6 ar
  11    5   25 1
  12    6   26 1
  13    7    8 1
  14    7    9 1
  15    7   27 1
  16    8   12 am
  17    8   28 1
  18    9   10 2
  19    9   13 1
  20   10   22 1
  21   10   11 1
  22   11   21 1
  23   11   12 am
  24   12   15 2
  25   13   14 1
  26   13   16 2
  27   14   18 1
  28   17   29 1
  29   18   19 1
  30   18   30 1
  31   18   31 1
  32   19   32 1
  33   19   33 1
  34   19   34 1
  35   20   21 1
  36   20   35 1
  37   20   36 1
  38   20   37 1
  39   21   38 1
  40   21   39 1
  41   22   40 1
  42   22   41 1
  43   22   42 1

#	End of record

