#	Name: ASD01100070
#	Creating user name:	WinNT
#	Creation time:	15. 06. 2019 18:58

#	Modifying user name:	WinNT
#	Modification time:	15. 06. 2019 18:58

#	Program:	/corina/corina34_cracker 3.40 0067  02.08.2006

@<TRIPOS>MOLECULE
ASD01100070
  34   35    0    0    0
SMALL
NO_CHARGES


@<TRIPOS>ATOM
   1 C1            -0.0167     1.3793     0.0096 C.ar    
   2 C2             0.0021    -0.0041     0.0020 C.ar    
   3 C3             1.2098    -0.6789    -0.0131 C.ar    
   4 C4             2.3967     0.0292    -0.0207 C.ar    
   5 C5             2.3773     1.4115    -0.0131 C.ar    
   6 C6             1.1709     2.0863     0.0021 C.ar    
   7 C7             3.6719     2.1830    -0.0208 C.3     
   8 Cl8           -1.4892    -0.8928     0.0121 Cl      
   9 C9             3.7284     3.0570    -1.2471 C.2     
  10 N10            4.8017     3.8423    -1.4660 N.am    
  11 O11            2.8082     3.0537    -2.0371 O.2     
  12 C12            4.8539     4.6484    -2.5972 C.2     
  13 N13            5.8358     5.4381    -2.9014 N.2     
  14 C14            5.7197     6.1333    -4.0174 C.2     
  15 C15            4.5858     5.9208    -4.6880 C.2     
  16 S16            3.6357     4.7373    -3.7935 S.3     
  17 C17            3.7522     3.0569     1.2325 C.3     
  18 C18            3.8204     2.1642     2.4732 C.3     
  19 C19            3.9008     3.0381     3.7265 C.3     
  20 H20           -0.9592     1.9066     0.0170 H       
  21 H21            1.2250    -1.7588    -0.0187 H       
  22 H22            3.3395    -0.4974    -0.0321 H       
  23 H23            1.1564     3.1662     0.0080 H       
  24 H24            4.5100     1.4862    -0.0322 H       
  25 H25            5.5377     3.8448    -0.8342 H       
  26 H26            6.4809     6.8185    -4.3601 H       
  27 H27            4.3016     6.3901    -5.6183 H       
  28 H28            4.6449     3.6804     1.1840 H       
  29 H29            2.8682     3.6919     1.2899 H       
  30 H30            2.9277     1.5407     2.5217 H       
  31 H31            4.7045     1.5292     2.4158 H       
  32 H32            4.7935     3.6617     3.6780 H       
  33 H33            3.0167     3.6732     3.7839 H       
  34 H34            3.9493     2.4022     4.6104 H       
@<TRIPOS>BOND
   1    1    2 ar
   2    1    6 ar
   3    1   20 1
   4    2    3 ar
   5    2    8 1
   6    3    4 ar
   7    3   21 1
   8    4    5 ar
   9    4   22 1
  10    5    6 ar
  11    5    7 1
  12    6   23 1
  13    7    9 1
  14    7   17 1
  15    7   24 1
  16    9   10 am
  17    9   11 2
  18   10   12 1
  19   10   25 1
  20   12   13 2
  21   12   16 1
  22   13   14 1
  23   14   15 2
  24   14   26 1
  25   15   16 1
  26   15   27 1
  27   17   18 1
  28   17   28 1
  29   17   29 1
  30   18   19 1
  31   18   30 1
  32   18   31 1
  33   19   32 1
  34   19   33 1
  35   19   34 1

#	End of record

