#	Name: ASD03082026
#	Creating user name:	WinNT
#	Creation time:	15. 06. 2019 20:27

#	Modifying user name:	WinNT
#	Modification time:	15. 06. 2019 20:27

#	Program:	/corina/corina34_cracker 3.40 0067  02.08.2006

@<TRIPOS>MOLECULE
ASD03082026
  49   51    0    0    0
SMALL
NO_CHARGES


@<TRIPOS>ATOM
   1 C1             0.2525     1.1446    -0.3407 C.3     
   2 N2             0.1025    -0.3101    -0.2027 N.3     
   3 C3             0.5886    -1.0118    -1.3982 C.3     
   4 C4             2.0898    -0.7528    -1.5635 C.3     
   5 N5             2.3163     0.7005    -1.5601 N.am    
   6 C6             1.7400     1.4921    -0.4626 C.3     
   7 S7             3.1973     1.4261    -2.7600 S.o2    
   8 C8            -1.2916    -0.6703     0.0887 C.3     
   9 C9            -2.1609    -0.3056    -1.0870 C.2     
  10 N10           -3.4632    -0.6527    -1.0954 N.am    
  11 O11           -1.6886     0.3001    -2.0257 O.2     
  12 C12           -4.2963    -0.2218    -2.1363 C.ar    
  13 O13            4.0388     0.4192    -3.3049 O.2     
  14 C14            2.0688     1.8759    -4.0364 C.ar    
  15 O15            3.6921     2.6417    -2.2153 O.2     
  16 C16            1.4555     3.1140    -4.0237 C.ar    
  17 N17            0.6098     3.4577    -4.9755 N.ar    
  18 C18            0.3167     2.6431    -5.9700 C.ar    
  19 C19            0.8918     1.3886    -6.0493 C.ar    
  20 C20            1.7895     0.9939    -5.0694 C.ar    
  21 C21           -5.3398    -1.0285    -2.5700 C.ar    
  22 C22           -6.1608    -0.6031    -3.5956 C.ar    
  23 C23           -5.9428     0.6298    -4.1929 C.ar    
  24 C24           -4.9001     1.4361    -3.7605 C.ar    
  25 C25           -4.0822     1.0145    -2.7308 C.ar    
  26 O26           -6.7513     1.0479    -5.2030 O.3     
  27 C27           -6.4692     2.3280    -5.7722 C.3     
  28 H28           -0.2740     1.4815    -1.2337 H       
  29 H29           -0.1656     1.6383     0.5365 H       
  30 H30            0.4141    -2.0821    -1.2879 H       
  31 H31            0.0573    -0.6449    -2.2765 H       
  32 H32            2.6334    -1.2100    -0.7367 H       
  33 H33            2.4324    -1.1746    -2.5084 H       
  34 H34            1.8513     2.5544    -0.6797 H       
  35 H35            2.2500     1.2507     0.4700 H       
  36 H36           -1.3591    -1.7427     0.2718 H       
  37 H37           -1.6296    -0.1288     0.9723 H       
  38 H38           -3.8237    -1.2007    -0.3809 H       
  39 H39            1.6709     3.8082    -3.2249 H       
  40 H40           -0.3810     2.9595    -6.7313 H       
  41 H41            0.6475     0.7257    -6.8661 H       
  42 H42            2.2542     0.0197    -5.1055 H       
  43 H43           -5.5092    -1.9887    -2.1055 H       
  44 H44           -6.9725    -1.2305    -3.9329 H       
  45 H45           -4.7307     2.3957    -4.2262 H       
  46 H46           -3.2704     1.6424    -2.3942 H       
  47 H47           -7.1866     2.5391    -6.5652 H       
  48 H48           -6.5453     3.0936    -5.0002 H       
  49 H49           -5.4606     2.3276    -6.1854 H       
@<TRIPOS>BOND
   1    1    2 1
   2    1    6 1
   3    1   28 1
   4    1   29 1
   5    2    3 1
   6    2    8 1
   7    3    4 1
   8    3   30 1
   9    3   31 1
  10    4    5 1
  11    4   32 1
  12    4   33 1
  13    5    6 1
  14    5    7 am
  15    6   34 1
  16    6   35 1
  17    7   13 2
  18    7   14 1
  19    7   15 2
  20    8    9 1
  21    8   36 1
  22    8   37 1
  23    9   10 am
  24    9   11 2
  25   10   12 1
  26   10   38 1
  27   12   21 ar
  28   12   25 ar
  29   14   16 ar
  30   14   20 ar
  31   16   17 ar
  32   16   39 1
  33   17   18 ar
  34   18   19 ar
  35   18   40 1
  36   19   20 ar
  37   19   41 1
  38   20   42 1
  39   21   22 ar
  40   21   43 1
  41   22   23 ar
  42   22   44 1
  43   23   24 ar
  44   23   26 1
  45   24   25 ar
  46   24   45 1
  47   25   46 1
  48   26   27 1
  49   27   47 1
  50   27   48 1
  51   27   49 1

#	End of record

