#	Name: ASD03331485
#	Creating user name:	WinNT
#	Creation time:	15. 06. 2019 20:39

#	Modifying user name:	WinNT
#	Modification time:	15. 06. 2019 20:39

#	Program:	/corina/corina34_cracker 3.40 0067  02.08.2006

@<TRIPOS>MOLECULE
ASD03331485
  75   78    0    0    0
SMALL
NO_CHARGES


@<TRIPOS>ATOM
   1 C1             0.8465     1.7795    -4.2311 C.ar    
   2 C2             1.0179     0.5409    -4.8133 C.ar    
   3 C3             1.9256    -0.3590    -4.2800 C.ar    
   4 C4             2.6664    -0.0221    -3.1602 C.ar    
   5 C5             2.5038     1.2149    -2.5683 C.ar    
   6 C6             1.5900     2.1259    -3.1020 C.ar    
   7 C7             1.4110     3.4525    -2.4735 C.2     
   8 Cl8            3.4329     1.6361    -1.1637 Cl      
   9 C9             2.4067     4.3123    -2.1385 C.2     
  10 N10            0.2076     4.0257    -2.1354 N.pl3   
  11 C11            0.4354     5.2423    -1.5822 C.2     
  12 C12           -1.0528     3.4452    -2.3316 C.ar    
  13 C13           -1.4059     2.2976    -1.6346 C.ar    
  14 C14           -2.6486     1.7274    -1.8298 C.ar    
  15 C15           -3.5413     2.2988    -2.7196 C.ar    
  16 C16           -3.1914     3.4424    -3.4159 C.ar    
  17 C17           -1.9525     4.0201    -3.2192 C.ar    
  18 C18            1.7967     5.4586    -1.5659 C.2     
  19 C19            2.4873     6.6549    -1.0545 C.2     
  20 N20            3.5152     7.1865    -1.7454 N.am    
  21 C21            3.8840     6.6563    -3.0651 C.3     
  22 C22            3.9102     7.8116    -4.0708 C.3     
  23 C23            4.8395     8.9120    -3.5535 C.3     
  24 C24            4.3096     9.4444    -2.2201 C.3     
  25 C25            4.2843     8.3113    -1.1959 C.3     
  26 C26            6.2230     8.3486    -3.3550 C.2     
  27 N27            4.8929    10.0071    -4.5312 N.3     
  28 C28            6.7232    13.3291    -4.6231 C.3     
  29 C29            5.7979    12.2095    -5.1039 C.3     
  30 C30            5.7814    11.0821    -4.0696 C.3     
  31 O31            2.1300     7.1629    -0.0088 O.2     
  32 N32            7.0404     8.1805    -4.4133 N.am    
  33 O33            6.6009     8.0465    -2.2429 O.2     
  34 Cl34           2.1349    -1.9160    -5.0186 Cl      
  35 Cl35          -5.1023     1.5794    -2.9632 Cl      
  36 C36           -0.6173     6.1949    -1.0768 C.3     
  37 C37           -0.8969     5.9091     0.4000 C.3     
  38 C38           -1.9657     6.8762     0.9131 C.3     
  39 C39           -2.2453     6.5905     2.3900 C.3     
  40 O40           -3.2436     7.4938     2.8692 O.3     
  41 F41            8.0185    12.8261    -4.4608 F       
  42 F42            6.7383    14.3599    -5.5688 F       
  43 F43            6.2589    13.8249    -3.4001 F       
  44 H44            0.1415     2.4817    -4.6509 H       
  45 H45            0.4427     0.2720    -5.6869 H       
  46 H46            3.3725    -0.7280    -2.7486 H       
  47 H47            3.4654     4.1534    -2.2809 H       
  48 H48           -0.7094     1.8509    -0.9406 H       
  49 H49           -2.9238     0.8347    -1.2878 H       
  50 H50           -3.8897     3.8862    -4.1100 H       
  51 H51           -1.6800     4.9128    -3.7626 H       
  52 H52            4.8706     6.1962    -3.0113 H       
  53 H53            3.1494     5.9149    -3.3793 H       
  54 H54            4.2753     7.4491    -5.0318 H       
  55 H55            2.9036     8.2121    -4.1911 H       
  56 H56            4.9589    10.2441    -1.8638 H       
  57 H57            3.2993     9.8296    -2.3578 H       
  58 H58            3.8160     8.6609    -0.2757 H       
  59 H59            5.3030     7.9837    -0.9883 H       
  60 H60            5.1762     9.6684    -5.4384 H       
  61 H61            4.7886    12.6014    -5.2303 H       
  62 H62            6.1596    11.8231    -6.0567 H       
  63 H63            5.4196    11.4684    -3.1168 H       
  64 H64            6.7906    10.6902    -3.9432 H       
  65 H65            6.7656     8.4866    -5.2918 H       
  66 H66            7.9035     7.7535    -4.2965 H       
  67 H67           -0.2634     7.2198    -1.1880 H       
  68 H68           -1.5335     6.0625    -1.6523 H       
  69 H69           -1.2509     4.8842     0.5111 H       
  70 H70            0.0193     6.0415     0.9755 H       
  71 H71           -1.6118     7.9012     0.8020 H       
  72 H72           -2.8819     6.7438     0.3376 H       
  73 H73           -2.5993     5.5656     2.5011 H       
  74 H74           -1.3292     6.7229     2.9654 H       
  75 H75           -3.4714     7.3700     3.8008 H       
@<TRIPOS>BOND
   1    1    2 ar
   2    1    6 ar
   3    1   44 1
   4    2    3 ar
   5    2   45 1
   6    3    4 ar
   7    3   34 1
   8    4    5 ar
   9    4   46 1
  10    5    6 ar
  11    5    8 1
  12    6    7 1
  13    7   10 1
  14    7    9 2
  15    9   18 1
  16    9   47 1
  17   10   11 1
  18   10   12 1
  19   11   18 2
  20   11   36 1
  21   12   13 ar
  22   12   17 ar
  23   13   14 ar
  24   13   48 1
  25   14   15 ar
  26   14   49 1
  27   15   16 ar
  28   15   35 1
  29   16   17 ar
  30   16   50 1
  31   17   51 1
  32   18   19 1
  33   19   20 am
  34   19   31 2
  35   20   21 1
  36   20   25 1
  37   21   22 1
  38   21   52 1
  39   21   53 1
  40   22   23 1
  41   22   54 1
  42   22   55 1
  43   23   24 1
  44   23   26 1
  45   23   27 1
  46   24   25 1
  47   24   56 1
  48   24   57 1
  49   25   58 1
  50   25   59 1
  51   26   32 am
  52   26   33 2
  53   27   30 1
  54   27   60 1
  55   28   29 1
  56   28   41 1
  57   28   42 1
  58   28   43 1
  59   29   30 1
  60   29   61 1
  61   29   62 1
  62   30   63 1
  63   30   64 1
  64   32   65 1
  65   32   66 1
  66   36   37 1
  67   36   67 1
  68   36   68 1
  69   37   38 1
  70   37   69 1
  71   37   70 1
  72   38   39 1
  73   38   71 1
  74   38   72 1
  75   39   40 1
  76   39   73 1
  77   39   74 1
  78   40   75 1

#	End of record

