#	Name: ASD03092384
#	Creating user name:	WinNT
#	Creation time:	15. 06. 2019 20:32

#	Modifying user name:	WinNT
#	Modification time:	15. 06. 2019 20:32

#	Program:	/corina/corina34_cracker 3.40 0067  02.08.2006

@<TRIPOS>MOLECULE
ASD03092384
  56   59    0    0    0
SMALL
NO_CHARGES


@<TRIPOS>ATOM
   1 C1             0.3380     1.9859     0.1443 C.2     
   2 C2             0.5501     0.5256     0.2225 C.ar    
   3 C3             1.8465     0.0042     0.2342 C.ar    
   4 C4             2.0366    -1.3618     0.3079 C.ar    
   5 C5             0.9474    -2.2120     0.3697 C.ar    
   6 C6            -0.3387    -1.7016     0.3581 C.ar    
   7 C7            -0.5435    -0.3391     0.2910 C.ar    
   8 O8             1.2926     2.7367     0.0899 O.2     
   9 N9            -0.9137     2.4851     0.1277 N.am    
  10 C10           -1.1240     3.9329     0.0501 C.3     
  11 S11           -4.9831     4.7269    -0.6389 S.3     
  12 C12           -4.5795     4.5790     1.0156 C.2     
  13 N13           -3.3130     4.3222     1.1493 N.2     
  14 C14           -2.6022     4.2263     0.0467 C.2     
  15 C15           -3.3087     4.4131    -1.0878 C.2     
  16 C16           -2.5484     5.2841    -4.6610 C.ar    
  17 C17           -3.0703     5.3712    -3.3884 C.ar    
  18 C18           -2.7731     4.3627    -2.4622 C.ar    
  19 C19           -1.9527     3.3051    -2.8774 C.ar    
  20 C20           -1.4745     3.2986    -4.1696 C.ar    
  21 N21           -1.7793     4.2697    -5.0106 N.ar    
  22 C22           -2.8650     6.3585    -5.6692 C.3     
  23 N23           -5.4733     4.7138     2.0623 N.3     
  24 C24           -6.8265     5.0026     1.5656 C.3     
  25 C25           -7.7691     5.2029     2.7553 C.3     
  26 O26           -7.7340     4.0392     3.5860 O.3     
  27 C27           -6.4312     3.7290     4.0877 C.3     
  28 C28           -5.4752     3.5138     2.9115 C.3     
  29 C29           -6.4987     2.4542     4.9310 C.3     
  30 C30           -9.1947     5.4243     2.2460 C.3     
  31 Cl31           3.2142     1.0704     0.1556 Cl      
  32 H32            3.0377    -1.7669     0.3171 H       
  33 H33            1.1014    -3.2795     0.4269 H       
  34 H34           -1.1845    -2.3715     0.4062 H       
  35 H35           -1.5480     0.0575     0.2865 H       
  36 H36           -1.6755     1.8858     0.1671 H       
  37 H37           -0.6600     4.4140     0.9111 H       
  38 H38           -0.6753     4.3166    -0.8661 H       
  39 H39           -3.6985     6.2042    -3.1092 H       
  40 H40           -1.6989     2.5075    -2.1949 H       
  41 H41           -0.8412     2.4881    -4.4990 H       
  42 H42           -2.1137     7.1460    -5.6089 H       
  43 H43           -2.8617     5.9291    -6.6710 H       
  44 H44           -3.8485     6.7777    -5.4567 H       
  45 H45           -6.8065     5.9090     0.9605 H       
  46 H46           -7.1777     4.1674     0.9596 H       
  47 H47           -7.4487     6.0710     3.3314 H       
  48 H48           -6.0719     4.5542     4.7025 H       
  49 H49           -5.8047     2.6548     2.3270 H       
  50 H50           -4.4686     3.3334     3.2889 H       
  51 H51           -6.8563     1.6293     4.3147 H       
  52 H52           -5.5055     2.2183     5.3131 H       
  53 H53           -7.1825     2.6067     5.7661 H       
  54 H54           -9.5146     4.5548     1.6719 H       
  55 H55           -9.8652     5.5669     3.0935 H       
  56 H56           -9.2200     6.3091     1.6100 H       
@<TRIPOS>BOND
   1    1    2 1
   2    1    8 2
   3    1    9 am
   4    2    3 ar
   5    2    7 ar
   6    3    4 ar
   7    3   31 1
   8    4    5 ar
   9    4   32 1
  10    5    6 ar
  11    5   33 1
  12    6    7 ar
  13    6   34 1
  14    7   35 1
  15    9   10 1
  16    9   36 1
  17   10   14 1
  18   10   37 1
  19   10   38 1
  20   11   12 1
  21   11   15 1
  22   12   13 2
  23   12   23 1
  24   13   14 1
  25   14   15 2
  26   15   18 1
  27   16   17 ar
  28   16   21 ar
  29   16   22 1
  30   17   18 ar
  31   17   39 1
  32   18   19 ar
  33   19   20 ar
  34   19   40 1
  35   20   21 ar
  36   20   41 1
  37   22   42 1
  38   22   43 1
  39   22   44 1
  40   23   24 1
  41   23   28 1
  42   24   25 1
  43   24   45 1
  44   24   46 1
  45   25   26 1
  46   25   30 1
  47   25   47 1
  48   26   27 1
  49   27   28 1
  50   27   29 1
  51   27   48 1
  52   28   49 1
  53   28   50 1
  54   29   51 1
  55   29   52 1
  56   29   53 1
  57   30   54 1
  58   30   55 1
  59   30   56 1

#	End of record

