#	Name: ASD00450049
#	Creating user name:	WinNT
#	Creation time:	15. 06. 2019 18:36

#	Modifying user name:	WinNT
#	Modification time:	15. 06. 2019 18:36

#	Program:	/corina/corina34_cracker 3.40 0067  02.08.2006

@<TRIPOS>MOLECULE
ASD00450049
  46   48    0    0    0
SMALL
NO_CHARGES


@<TRIPOS>ATOM
   1 C1             0.6813     0.7988    -0.0990 C.ar    
   2 C2             0.2559    -0.5308     0.0449 C.ar    
   3 C3             1.1331    -1.4851     0.5311 C.ar    
   4 C4             2.4280    -1.1320     0.8762 C.ar    
   5 C5             2.8591     0.1766     0.7391 C.ar    
   6 C6             1.9967     1.1477     0.2530 C.ar    
   7 C7            -0.2406     1.8186    -0.6202 C.2     
   8 O8            -0.9448     2.4500     0.1450 O.2     
   9 N9            -0.3056     2.0540    -1.9456 N.am    
  10 N10            2.4308     2.4602     0.1151 N.pl3   
  11 C11            3.5066     2.9251     0.8791 C.ar    
  12 C12            4.2390     4.0281     0.4531 C.ar    
  13 C13            3.8421     2.2899     2.0674 C.ar    
  14 C14            4.9045     2.7513     2.8201 C.ar    
  15 C15            5.6349     3.8453     2.3920 C.ar    
  16 C16            5.3013     4.4847     1.2115 C.ar    
  17 F17            3.2756    -2.0713     1.3501 F       
  18 F18            3.9133     4.6521    -0.7000 F       
  19 I19            7.2451     4.5402     3.5380 I       
  20 O20           -1.0111    -0.8799    -0.2910 O.3     
  21 C21           -1.3593    -2.1901    -0.1931 C.ar    
  22 C22           -1.6627    -2.7363     1.0449 C.ar    
  23 C23           -2.0183    -4.0737     1.1421 C.ar    
  24 C24           -1.4168    -2.9796    -1.3325 C.ar    
  25 C25           -1.7716    -4.3124    -1.2354 C.ar    
  26 N26           -2.3253    -4.6277     2.3888 N.am    
  27 C27           -2.0694    -4.8628    -0.0027 C.ar    
  28 S28           -1.5548    -4.0826     3.7495 S.o2    
  29 N29           -2.1020    -2.5470     4.0407 N.am    
  30 O30           -2.0225    -4.8858     4.8244 O.2     
  31 O31           -0.1801    -3.9613     3.4109 O.2     
  32 F32           -2.4154    -6.1654     0.0897 F       
  33 H33            0.8070    -2.5086     0.6423 H       
  34 H34            3.8700     0.4418     1.0114 H       
  35 H35            0.2559     1.5506    -2.5557 H       
  36 H36           -0.9138     2.7269    -2.2895 H       
  37 H37            1.9880     3.0542    -0.5109 H       
  38 H38            3.2725     1.4359     2.4031 H       
  39 H39            5.1651     2.2573     3.7445 H       
  40 H40            5.8712     5.3408     0.8818 H       
  41 H41           -1.6219    -2.1216     1.9319 H       
  42 H42           -1.1843    -2.5523    -2.2967 H       
  43 H43           -1.8159    -4.9247    -2.1240 H       
  44 H44           -2.9895    -5.3314     2.4565 H       
  45 H45           -2.7575    -2.1453     3.4491 H       
  46 H46           -1.7671    -2.0492     4.8029 H       
@<TRIPOS>BOND
   1    1    2 ar
   2    1    6 ar
   3    1    7 1
   4    2    3 ar
   5    2   20 1
   6    3    4 ar
   7    3   33 1
   8    4    5 ar
   9    4   17 1
  10    5    6 ar
  11    5   34 1
  12    6   10 1
  13    7    8 2
  14    7    9 am
  15    9   35 1
  16    9   36 1
  17   10   11 1
  18   10   37 1
  19   11   13 ar
  20   11   12 ar
  21   12   16 ar
  22   12   18 1
  23   13   14 ar
  24   13   38 1
  25   14   15 ar
  26   14   39 1
  27   15   16 ar
  28   15   19 1
  29   16   40 1
  30   20   21 1
  31   21   22 ar
  32   21   24 ar
  33   22   23 ar
  34   22   41 1
  35   23   27 ar
  36   23   26 1
  37   24   25 ar
  38   24   42 1
  39   25   27 ar
  40   25   43 1
  41   26   28 am
  42   26   44 1
  43   27   32 1
  44   28   29 am
  45   28   30 2
  46   28   31 2
  47   29   45 1
  48   29   46 1

#	End of record

