#	Name: ASD08178037
#	Creating user name:	WinNT
#	Creation time:	15. 06. 2019 21:18

#	Modifying user name:	WinNT
#	Modification time:	15. 06. 2019 21:18

#	Program:	/corina/corina34_cracker 3.40 0067  02.08.2006

@<TRIPOS>MOLECULE
ASD08178037
  75   77    0    0    0
SMALL
NO_CHARGES


@<TRIPOS>ATOM
   1 C1            -0.2724     2.0177     0.6456 C.ar    
   2 C2            -0.2949     0.6365     0.6951 C.ar    
   3 C3             0.8904    -0.0748     0.6875 C.ar    
   4 C4             2.0982     0.5952     0.6298 C.ar    
   5 C5             2.1206     1.9764     0.5794 C.ar    
   6 C6             0.9354     2.6878     0.5884 C.ar    
   7 O7             3.1236     2.4839    -1.8114 O.2     
   8 C8             3.8374     2.8991    -0.9231 C.2     
   9 C9             3.4373     2.7069     0.5170 C.3     
  10 N10            4.6799     3.3111    -3.5868 N.2     
  11 C11            5.3576     3.7099    -2.5530 C.2     
  12 N12            4.9884     3.5325    -1.2239 N.am    
  13 N13            5.1583     3.5524    -4.7299 N.2     
  14 C14            6.2904     4.1807    -4.7635 C.2     
  15 S15            6.7823     4.4898    -3.0980 S.3     
  16 C16            7.0512     4.5759    -6.0029 C.3     
  17 C17            6.6086     5.9706    -6.4500 C.3     
  18 S18            7.5243     6.4463    -7.9418 S.3     
  19 C19            6.8725     8.0984    -8.3113 C.3     
  20 C20            7.5563     8.6478    -9.5649 C.3     
  21 C21            7.0148    10.0203    -9.8718 C.2     
  22 N22            7.4873    11.1436    -9.4330 N.2     
  23 N23            6.8901    12.1916    -9.8058 N.2     
  24 C24            5.8635    12.0543   -10.5895 C.2     
  25 S25            5.6284    10.3859   -10.8992 S.3     
  26 N26            5.0872    13.0904   -11.0976 N.am    
  27 C27            5.3794    14.3680   -10.7834 C.2     
  28 O28            6.2602    14.6100    -9.9856 O.2     
  29 C29            4.6117    15.4958   -11.4235 C.3     
  30 N30            4.5771    16.6421   -10.5118 N.am    
  31 C31            5.2975    15.9031   -12.7291 C.3     
  32 C32            5.4173    14.6830   -13.6444 C.3     
  33 C33            4.4677    16.9836   -13.4255 C.3     
  34 C34            3.5809    17.5454   -10.6025 C.2     
  35 O35            2.7115    17.4090   -11.4403 O.2     
  36 O36            3.5491    18.5988    -9.7647 O.3     
  37 C37            2.4470    19.5314    -9.9197 C.3     
  38 C38            1.1226    18.7958    -9.7057 C.3     
  39 C39            2.5795    20.6536    -8.8883 C.3     
  40 C40            2.4775    20.1273   -11.3286 C.3     
  41 H41           -1.1986     2.5733     0.6470 H       
  42 H42           -1.2385     0.1130     0.7402 H       
  43 H43            0.8729    -1.1539     0.7269 H       
  44 H44            3.0242     0.0395     0.6246 H       
  45 H45            0.9529     3.7669     0.5486 H       
  46 H46            3.3365     3.6793     0.9990 H       
  47 H47            4.2010     2.1237     1.0316 H       
  48 H48            5.5593     3.8646    -0.5135 H       
  49 H49            8.1193     4.5859    -5.7859 H       
  50 H50            6.8486     3.8582    -6.7979 H       
  51 H51            5.5404     5.9606    -6.6670 H       
  52 H52            6.8111     6.6883    -5.6550 H       
  53 H53            5.7978     8.0352    -8.4818 H       
  54 H54            7.0685     8.7628    -7.4697 H       
  55 H55            8.6311     8.7110    -9.3944 H       
  56 H56            7.3604     7.9834   -10.4064 H       
  57 H57            4.3354    12.8934   -11.6782 H       
  58 H58            3.5936    15.1686   -11.6345 H       
  59 H59            5.2711    16.7510    -9.8430 H       
  60 H60            6.2918    16.2928   -12.5111 H       
  61 H61            4.4212    14.3249   -13.9048 H       
  62 H62            5.9523    14.9611   -14.5524 H       
  63 H63            5.9636    13.8937   -13.1281 H       
  64 H64            4.3823    17.8528   -12.7735 H       
  65 H65            4.9562    17.2737   -14.3557 H       
  66 H66            3.4733    16.5939   -13.6436 H       
  67 H67            1.1008    18.3712    -8.7020 H       
  68 H68            0.2953    19.4958    -9.8221 H       
  69 H69            1.0282    17.9963   -10.4406 H       
  70 H70            3.5231    21.1777    -9.0407 H       
  71 H71            1.7522    21.3537    -9.0047 H       
  72 H72            2.5578    20.2291    -7.8846 H       
  73 H73            2.3831    19.3278   -12.0634 H       
  74 H74            1.6502    20.8274   -11.4450 H       
  75 H75            3.4211    20.6513   -11.4810 H       
@<TRIPOS>BOND
   1    1    2 ar
   2    1    6 ar
   3    1   41 1
   4    2    3 ar
   5    2   42 1
   6    3    4 ar
   7    3   43 1
   8    4    5 ar
   9    4   44 1
  10    5    6 ar
  11    5    9 1
  12    6   45 1
  13    7    8 2
  14    8    9 1
  15    8   12 am
  16    9   46 1
  17    9   47 1
  18   10   11 2
  19   10   13 1
  20   11   12 1
  21   11   15 1
  22   12   48 1
  23   13   14 2
  24   14   15 1
  25   14   16 1
  26   16   17 1
  27   16   49 1
  28   16   50 1
  29   17   18 1
  30   17   51 1
  31   17   52 1
  32   18   19 1
  33   19   20 1
  34   19   53 1
  35   19   54 1
  36   20   21 1
  37   20   55 1
  38   20   56 1
  39   21   22 2
  40   21   25 1
  41   22   23 1
  42   23   24 2
  43   24   25 1
  44   24   26 1
  45   26   27 am
  46   26   57 1
  47   27   28 2
  48   27   29 1
  49   29   30 1
  50   29   31 1
  51   29   58 1
  52   30   34 am
  53   30   59 1
  54   31   32 1
  55   31   33 1
  56   31   60 1
  57   32   61 1
  58   32   62 1
  59   32   63 1
  60   33   64 1
  61   33   65 1
  62   33   66 1
  63   34   35 2
  64   34   36 1
  65   36   37 1
  66   37   38 1
  67   37   39 1
  68   37   40 1
  69   38   67 1
  70   38   68 1
  71   38   69 1
  72   39   70 1
  73   39   71 1
  74   39   72 1
  75   40   73 1
  76   40   74 1
  77   40   75 1

#	End of record

