#	Name: ASD01901313
#	Creating user name:	WinNT
#	Creation time:	15. 06. 2019 19:53

#	Modifying user name:	WinNT
#	Modification time:	15. 06. 2019 19:53

#	Program:	/corina/corina34_cracker 3.40 0067  02.08.2006

@<TRIPOS>MOLECULE
ASD01901313
  38   41    0    0    0
SMALL
NO_CHARGES


@<TRIPOS>ATOM
   1 C1            -0.0166     1.3756     0.0096 C.ar    
   2 C2             0.0021    -0.0041     0.0020 C.ar    
   3 C3             1.2100    -0.6824    -0.0127 C.ar    
   4 C4             2.4037     0.0207    -0.0199 C.ar    
   5 C5             2.3942     1.4005    -0.0128 C.ar    
   6 C6             1.1816     2.0867     0.0020 C.ar    
   7 C7             1.1664     3.5708     0.0096 C.2     
   8 N8             0.6176     5.5972    -1.0706 N.2     
   9 C9             0.6291     4.2868    -1.0822 C.2     
  10 C10            1.6671     4.2635     1.0762 C.2     
  11 C11            1.1117     6.2853    -0.0304 C.2     
  12 N12            1.2063     7.5868     0.2021 N.2     
  13 N13            1.6373     5.6264     1.0512 N.pl3   
  14 C14            2.0515     6.5789     1.9428 C.2     
  15 C15            1.7746     7.7815     1.3958 C.2     
  16 C16            2.0585     9.1205     2.0263 C.3     
  17 O17            2.6718     8.9258     3.3022 O.3     
  18 C18            2.9948    10.0412     4.0082 C.ar    
  19 C19            2.7218    11.2972     3.4862 C.ar    
  20 C20            3.5930     9.9256     5.2545 C.ar    
  21 C21            3.9205    11.0609     5.9702 C.ar    
  22 C22            3.6521    12.3117     5.4455 C.ar    
  23 C23            3.0512    12.4295     4.2058 C.ar    
  24 F24            1.2238    -2.0333    -0.0196 F       
  25 H25           -0.9587     1.9037     0.0169 H       
  26 H26           -0.9262    -0.5560     0.0079 H       
  27 H27            3.3432    -0.5120    -0.0306 H       
  28 H28            3.3252     1.9478    -0.0184 H       
  29 H29            0.2266     3.7526    -1.9302 H       
  30 H30            2.0796     3.7394     1.9257 H       
  31 H31            2.5129     6.4016     2.9031 H       
  32 H32            2.7299     9.6898     1.3835 H       
  33 H33            1.1245     9.6683     2.1519 H       
  34 H34            2.2525    11.3897     2.5179 H       
  35 H35            3.8022     8.9489     5.6652 H       
  36 H36            4.3861    10.9715     6.9405 H       
  37 H37            3.9085    13.1981     6.0067 H       
  38 H38            2.8388    13.4075     3.7998 H       
@<TRIPOS>BOND
   1    1    2 ar
   2    1    6 ar
   3    1   25 1
   4    2    3 ar
   5    2   26 1
   6    3    4 ar
   7    3   24 1
   8    4    5 ar
   9    4   27 1
  10    5    6 ar
  11    5   28 1
  12    6    7 1
  13    7   10 2
  14    7    9 1
  15    8    9 2
  16    8   11 1
  17    9   29 1
  18   10   13 1
  19   10   30 1
  20   11   13 1
  21   11   12 2
  22   12   15 1
  23   13   14 1
  24   14   15 2
  25   14   31 1
  26   15   16 1
  27   16   17 1
  28   16   32 1
  29   16   33 1
  30   17   18 1
  31   18   20 ar
  32   18   19 ar
  33   19   23 ar
  34   19   34 1
  35   20   21 ar
  36   20   35 1
  37   21   22 ar
  38   21   36 1
  39   22   23 ar
  40   22   37 1
  41   23   38 1

#	End of record

