#	Name: ASD02198368
#	Creating user name:	WinNT
#	Creation time:	15. 06. 2019 20:19

#	Modifying user name:	WinNT
#	Modification time:	15. 06. 2019 20:19

#	Program:	/corina/corina34_cracker 3.40 0067  02.08.2006

@<TRIPOS>MOLECULE
ASD02198368
  42   45    0    0    0
SMALL
NO_CHARGES


@<TRIPOS>ATOM
   1 C1             0.1221     1.4710    -0.9020 C.2     
   2 C2             0.1489     0.0946    -1.0586 C.2     
   3 S3             1.7155     1.9768    -0.3461 S.3     
   4 C4             2.2574     0.3567    -0.3717 C.2     
   5 N5             1.3076    -0.4441    -0.7629 N.2     
   6 N6            -0.9427    -0.6414    -1.4861 N.pl3   
   7 C7            -0.9696     2.3076    -1.1467 C.2     
   8 C8            -0.8441     3.7935    -0.9289 C.3     
   9 O9            -2.0217     1.8366    -1.5356 O.2     
  10 N10            3.5269    -0.0477    -0.0262 N.pl3   
  11 C11            3.8291    -1.4122     0.0547 C.ar    
  12 C12            5.1176    -1.8555    -0.2140 C.ar    
  13 C13            5.4151    -3.2014    -0.1335 C.ar    
  14 C14            4.4271    -4.1110     0.2153 C.ar    
  15 C15            3.1395    -3.6689     0.4835 C.ar    
  16 C16            2.8421    -2.3225     0.4094 C.ar    
  17 C17           -1.7827     4.7054    -1.7216 C.3     
  18 C18           -1.9994     4.5037    -0.2205 C.3     
  19 O19            4.7206    -5.4362     0.2940 O.3     
  20 C20            5.4816    -5.8602     1.3367 C.ar    
  21 C21            5.8505    -4.9700     2.3352 C.ar    
  22 C22            6.6237    -5.4038     3.3944 C.ar    
  23 C23            7.0302    -6.7238     3.4603 C.ar    
  24 C24            6.6644    -7.6128     2.4665 C.ar    
  25 C25            5.8865    -7.1856     1.4080 C.ar    
  26 H26           -1.7784    -0.1943    -1.6924 H       
  27 H27           -0.8718    -1.6043    -1.5795 H       
  28 H28            0.1651     4.1565    -0.7348 H       
  29 H29            4.2121     0.6128     0.1611 H       
  30 H30            5.8865    -1.1477    -0.4863 H       
  31 H31            6.4169    -3.5463    -0.3425 H       
  32 H32            2.3708    -4.3775     0.7543 H       
  33 H33            1.8398    -1.9785     0.6181 H       
  34 H34           -1.3910     5.6686    -2.0486 H       
  35 H35           -2.4909     4.2307    -2.4006 H       
  36 H36           -2.8502     3.8962     0.0880 H       
  37 H37           -1.7503     5.3342     0.4401 H       
  38 H38            5.5335    -3.9388     2.2840 H       
  39 H39            6.9114    -4.7112     4.1716 H       
  40 H40            7.6348    -7.0609     4.2894 H       
  41 H41            6.9838    -8.6431     2.5200 H       
  42 H42            5.6007    -7.8804     0.6322 H       
@<TRIPOS>BOND
   1    1    2 2
   2    1    3 1
   3    1    7 1
   4    2    6 1
   5    2    5 1
   6    3    4 1
   7    4    5 2
   8    4   10 1
   9    6   26 1
  10    6   27 1
  11    7    8 1
  12    7    9 2
  13    8   17 1
  14    8   18 1
  15    8   28 1
  16   10   11 1
  17   10   29 1
  18   11   12 ar
  19   11   16 ar
  20   12   13 ar
  21   12   30 1
  22   13   14 ar
  23   13   31 1
  24   14   15 ar
  25   14   19 1
  26   15   16 ar
  27   15   32 1
  28   16   33 1
  29   17   18 1
  30   17   34 1
  31   17   35 1
  32   18   36 1
  33   18   37 1
  34   19   20 1
  35   20   21 ar
  36   20   25 ar
  37   21   22 ar
  38   21   38 1
  39   22   23 ar
  40   22   39 1
  41   23   24 ar
  42   23   40 1
  43   24   25 ar
  44   24   41 1
  45   25   42 1

#	End of record

