#	Name: ASD05773001
#	Creating user name:	WinNT
#	Creation time:	15. 06. 2019 21:03

#	Modifying user name:	WinNT
#	Modification time:	15. 06. 2019 21:03

#	Program:	/corina/corina34_cracker 3.40 0067  02.08.2006

@<TRIPOS>MOLECULE
ASD05773001
   4    3    0    0    0
SMALL
NO_CHARGES


@<TRIPOS>ATOM
   1 C1            -0.0145     1.2208     0.0088 C.2     
   2 O2             0.0021    -0.0041     0.0020 O.3     
   3 O3             1.0379     1.8477     0.0021 O.2     
   4 O4            -1.0836     1.8188     0.0171 O.3     
@<TRIPOS>BOND
   1    1    2 1
   2    1    3 2
   3    1    4 1

#	End of record

