#	Name: ASD01230001
#	Creating user name:	WinNT
#	Creation time:	15. 06. 2019 19:11

#	Modifying user name:	WinNT
#	Modification time:	15. 06. 2019 19:11

#	Program:	/corina/corina34_cracker 3.40 0067  02.08.2006

@<TRIPOS>MOLECULE
ASD01230001
  29   30    0    0    0
SMALL
NO_CHARGES


@<TRIPOS>ATOM
   1 N1             0.1331     1.4717     0.5718 N.am    
   2 C2            -1.0634     1.9960     1.2409 C.3     
   3 C3            -1.6070     0.8255     2.0900 C.3     
   4 C4            -1.0598    -0.4008     1.3235 C.3     
   5 C5             0.1552     0.1279     0.5933 C.2     
   6 C6             1.0844     2.2389     0.0037 C.2     
   7 C7             0.8987     3.6995    -0.0843 C.ar    
   8 C8             2.0005     4.5536     0.0195 C.ar    
   9 C9             1.8227     5.9164    -0.0632 C.ar    
  10 C10            0.5499     6.4433    -0.2495 C.ar    
  11 C11           -0.5484     5.5975    -0.3533 C.ar    
  12 C12           -0.3787     4.2333    -0.2774 C.ar    
  13 O13            0.3790     7.7871    -0.3300 O.3     
  14 C14           -0.9554     8.2610    -0.5220 C.3     
  15 O15            1.0259    -0.5602     0.1052 O.2     
  16 O16            2.0954     1.7273    -0.4360 O.2     
  17 H17           -0.7989     2.8365     1.8825 H       
  18 H18           -1.8045     2.3025     0.5028 H       
  19 H19           -1.2086     0.8613     3.1040 H       
  20 H20           -2.6969     0.8245     2.1005 H       
  21 H21           -0.7764    -1.1904     2.0194 H       
  22 H22           -1.7992    -0.7663     0.6109 H       
  23 H23            2.9896     4.1451     0.1647 H       
  24 H24            2.6734     6.5770     0.0173 H       
  25 H25           -1.5356     6.0109    -0.4980 H       
  26 H26           -1.2325     3.5768    -0.3581 H       
  27 H27           -1.3533     7.8589    -1.4537 H       
  28 H28           -1.5797     7.9357     0.3101 H       
  29 H29           -0.9510     9.3500    -0.5689 H       
@<TRIPOS>BOND
   1    1    2 1
   2    1    6 am
   3    1    5 am
   4    2    3 1
   5    2   17 1
   6    2   18 1
   7    3    4 1
   8    3   19 1
   9    3   20 1
  10    4    5 1
  11    4   21 1
  12    4   22 1
  13    5   15 2
  14    6    7 1
  15    6   16 2
  16    7    8 ar
  17    7   12 ar
  18    8    9 ar
  19    8   23 1
  20    9   10 ar
  21    9   24 1
  22   10   11 ar
  23   10   13 1
  24   11   12 ar
  25   11   25 1
  26   12   26 1
  27   13   14 1
  28   14   27 1
  29   14   28 1
  30   14   29 1

#	End of record

