#	Name: ASD03430527
#	Creating user name:	WinNT
#	Creation time:	15. 06. 2019 20:41

#	Modifying user name:	WinNT
#	Modification time:	15. 06. 2019 20:41

#	Program:	/corina/corina34_cracker 3.40 0067  02.08.2006

@<TRIPOS>MOLECULE
ASD03430527
  44   49    0    0    0
SMALL
NO_CHARGES


@<TRIPOS>ATOM
   1 O1            -0.0161     1.3364     0.0094 O.3     
   2 C2             0.0021    -0.0041     0.0020 C.2     
   3 N3             1.2342    -0.4159    -0.0120 N.2     
   4 C4             2.0525     0.6717    -0.0139 C.2     
   5 C5             1.2529     1.7738    -0.0004 C.2     
   6 C6             3.5251     0.6589    -0.0273 C.2     
   7 O7             4.1419     1.7061    -0.0277 O.2     
   8 O8             4.1887    -0.5141    -0.0392 O.3     
   9 C9            -1.2148    -0.8930     0.0096 C.3     
  10 O10           -0.1457     2.4608     6.2786 O.3     
  11 C11           -0.3343     2.6056     7.6986 C.3     
  12 O12           -1.7119     2.2386     7.9001 O.3     
  13 C13           -2.0142     1.3796     6.8824 C.ar    
  14 C14           -1.0513     1.5175     5.8852 C.ar    
  15 C15           -3.0494     0.4758     6.7241 C.ar    
  16 C16           -3.1388    -0.2990     5.5716 C.ar    
  17 C17           -2.1756    -0.1464     4.5788 C.ar    
  18 C18           -1.1388     0.7494     4.7363 C.ar    
  19 O19           -4.0561    -1.2482     5.2282 O.3     
  20 C20           -2.5552    -1.0853     3.4651 C.3     
  21 C21           -4.0018    -1.4687     3.8055 C.3     
  22 N22           -1.5954    -1.1880     1.3932 N.am    
  23 C23           -2.4509    -0.4367     2.1148 C.2     
  24 C24           -1.6586    -2.2860     3.4000 C.ar    
  25 C25           -1.3265    -3.2752     4.2984 C.ar    
  26 C26           -0.4462    -4.2775     3.9316 C.ar    
  27 C27            0.0998    -4.2829     2.6608 C.ar    
  28 C28           -0.2290    -3.2937     1.7576 C.ar    
  29 C29           -1.1146    -2.2811     2.1181 C.ar    
  30 O30           -3.0243     0.5663     1.7457 O.2     
  31 H31            1.5778     2.8038     0.0017 H       
  32 H32            5.1548    -0.4718    -0.0477 H       
  33 H33           -2.0382    -0.3861    -0.4935 H       
  34 H34           -0.9883    -1.8234    -0.5111 H       
  35 H35            0.3255     1.9304     8.2434 H       
  36 H36           -0.1644     3.6380     8.0042 H       
  37 H37           -3.7931     0.3708     7.5001 H       
  38 H38           -0.3936     0.8524     3.9615 H       
  39 H39           -4.1907    -2.5157     3.5686 H       
  40 H40           -4.7068    -0.8198     3.2860 H       
  41 H41           -1.7538    -3.2689     5.2903 H       
  42 H42           -0.1862    -5.0540     4.6357 H       
  43 H43            0.7870    -5.0653     2.3745 H       
  44 H44            0.2018    -3.3044     0.7673 H       
@<TRIPOS>BOND
   1    1    2 1
   2    1    5 1
   3    2    3 2
   4    2    9 1
   5    3    4 1
   6    4    5 2
   7    4    6 1
   8    5   31 1
   9    6    7 2
  10    6    8 1
  11    8   32 1
  12    9   22 1
  13    9   33 1
  14    9   34 1
  15   10   11 1
  16   10   14 1
  17   11   12 1
  18   11   35 1
  19   11   36 1
  20   12   13 1
  21   13   14 ar
  22   13   15 ar
  23   14   18 ar
  24   15   16 ar
  25   15   37 1
  26   16   17 ar
  27   16   19 1
  28   17   18 ar
  29   17   20 1
  30   18   38 1
  31   19   21 1
  32   20   21 1
  33   20   23 1
  34   20   24 1
  35   21   39 1
  36   21   40 1
  37   22   23 am
  38   22   29 1
  39   23   30 2
  40   24   25 ar
  41   24   29 ar
  42   25   26 ar
  43   25   41 1
  44   26   27 ar
  45   26   42 1
  46   27   28 ar
  47   27   43 1
  48   28   29 ar
  49   28   44 1

#	End of record

