#	Name: ASD03320065
#	Creating user name:	WinNT
#	Creation time:	15. 06. 2019 20:36

#	Modifying user name:	WinNT
#	Modification time:	15. 06. 2019 20:36

#	Program:	/corina/corina34_cracker 3.40 0067  02.08.2006

@<TRIPOS>MOLECULE
ASD03320065
  51   54    0    0    0
SMALL
NO_CHARGES


@<TRIPOS>ATOM
   1 C1            -0.0181     1.4708     0.0148 C.2     
   2 C2             0.0014    -0.0045     0.0118 C.ar    
   3 C3             1.2192    -0.6978     0.0014 C.ar    
   4 C4             1.1850    -2.0893    -0.0006 C.ar    
   5 C5            -0.0614    -2.7401     0.0079 C.ar    
   6 N6            -1.1881    -2.0440     0.0177 N.ar    
   7 C7            -1.1932    -0.7273     0.0252 C.ar    
   8 O8             1.0268     2.0927     0.0082 O.2     
   9 N9            -1.1942     2.1291     0.0193 N.am    
  10 C10           -1.2149     3.5229     0.1325 C.ar    
  11 C11           -2.1829     4.2612    -0.5361 C.ar    
  12 C12           -2.2005     5.6374    -0.4222 C.ar    
  13 C13           -1.2555     6.2805     0.3561 C.ar    
  14 C14           -0.2901     5.5485     1.0227 C.ar    
  15 C15           -0.2710     4.1714     0.9183 C.ar    
  16 C16           -1.2775     7.7824     0.4777 C.3     
  17 C17           -2.1561     8.1853     1.6637 C.3     
  18 Cl18          -2.1825     9.9822     1.8092 Cl      
  19 F19           -3.4579     7.7147     1.4608 F       
  20 F20           -1.6373     7.6299     2.8383 F       
  21 N21            2.6868    -4.0136     0.6895 N.pl3   
  22 N22            3.9925    -4.4238     0.3914 N.2     
  23 C23            4.5142    -3.5698    -0.4521 C.2     
  24 C24            3.5683    -2.5821    -0.7275 C.2     
  25 C25            2.4404    -2.8713    -0.0120 C.2     
  26 N26           -0.1114    -4.1218     0.0056 N.3     
  27 C27           -1.5061    -4.6001     0.0156 C.3     
  28 C28           -1.6860    -5.5106    -1.2173 C.3     
  29 C29           -0.2342    -5.9517    -1.5408 C.3     
  30 C30            0.5673    -4.6746    -1.1859 C.3     
  31 O31           -2.4980    -6.6417    -0.8959 O.3     
  32 F32            0.0242     8.2530     0.6806 F       
  33 F33           -1.7964     8.3378    -0.6969 F       
  34 H34            2.1595    -0.1665    -0.0054 H       
  35 H35           -2.1349    -0.1988     0.0374 H       
  36 H36           -2.0262     1.6362    -0.0560 H       
  37 H37           -2.9207     3.7596    -1.1446 H       
  38 H38           -2.9530     6.2121    -0.9418 H       
  39 H39            0.4469     6.0538     1.6292 H       
  40 H40            0.4801     3.5999     1.4433 H       
  41 H41            2.0676    -4.4640     1.2851 H       
  42 H42            5.5107    -3.6208    -0.8654 H       
  43 H43            3.7035    -1.7385    -1.3882 H       
  44 H44           -1.6970    -5.1674     0.9266 H       
  45 H45           -2.1891    -3.7529    -0.0462 H       
  46 H46           -2.1137    -4.9520    -2.0498 H       
  47 H47            0.0683    -6.7897    -0.9129 H       
  48 H48           -0.1275    -6.1988    -2.5971 H       
  49 H49            0.5291    -3.9614    -2.0094 H       
  50 H50            1.6008    -4.9284    -0.9503 H       
  51 H51           -2.6418    -7.2460    -1.6370 H       
@<TRIPOS>BOND
   1    1    2 1
   2    1    8 2
   3    1    9 am
   4    2    3 ar
   5    2    7 ar
   6    3    4 ar
   7    3   34 1
   8    4    5 ar
   9    4   25 1
  10    5    6 ar
  11    5   26 1
  12    6    7 ar
  13    7   35 1
  14    9   10 1
  15    9   36 1
  16   10   11 ar
  17   10   15 ar
  18   11   12 ar
  19   11   37 1
  20   12   13 ar
  21   12   38 1
  22   13   14 ar
  23   13   16 1
  24   14   15 ar
  25   14   39 1
  26   15   40 1
  27   16   17 1
  28   16   32 1
  29   16   33 1
  30   17   18 1
  31   17   19 1
  32   17   20 1
  33   21   22 1
  34   21   25 1
  35   21   41 1
  36   22   23 2
  37   23   24 1
  38   23   42 1
  39   24   25 2
  40   24   43 1
  41   26   27 1
  42   26   30 1
  43   27   28 1
  44   27   44 1
  45   27   45 1
  46   28   29 1
  47   28   31 1
  48   28   46 1
  49   29   30 1
  50   29   47 1
  51   29   48 1
  52   30   49 1
  53   30   50 1
  54   31   51 1

#	End of record

