#	Name: ASD01000066
#	Creating user name:	WinNT
#	Creation time:	15. 06. 2019 18:54

#	Modifying user name:	WinNT
#	Modification time:	15. 06. 2019 18:54

#	Program:	/corina/corina34_cracker 3.40 0067  02.08.2006

@<TRIPOS>MOLECULE
ASD01000066
  47   49    0    0    0
SMALL
NO_CHARGES


@<TRIPOS>ATOM
   1 C1             0.3602     1.3716     0.4484 C.ar    
   2 C2             0.5211     0.0148     0.6584 C.ar    
   3 C3             1.0149    -0.7874    -0.3534 C.ar    
   4 C4             1.3471    -0.2328    -1.5753 C.ar    
   5 C5             1.1853     1.1238    -1.7855 C.ar    
   6 C6             0.6929     1.9262    -0.7733 C.ar    
   7 C7             1.1913    -2.2663    -0.1242 C.3     
   8 C8             0.9800    -2.5772     1.3352 C.ar    
   9 C9             0.0161    -3.4927     1.7143 C.ar    
  10 C10           -0.1778    -3.7778     3.0530 C.ar    
  11 C11            0.5925    -3.1478     4.0125 C.ar    
  12 C12            1.5570    -2.2330     3.6333 C.ar    
  13 C13            1.7538    -1.9511     2.2944 C.ar    
  14 S14           -0.0190    -3.1810    -1.1187 S.3     
  15 C15           -1.5960    -2.4213    -0.6426 C.3     
  16 C16           -2.7473    -3.1718    -1.3150 C.3     
  17 N17           -4.0243    -2.5566    -0.9294 N.3     
  18 C18            2.5846    -2.6746    -0.5281 C.ar    
  19 C19            2.8295    -3.9656    -0.9572 C.ar    
  20 C20            3.6166    -1.7564    -0.4748 C.ar    
  21 C21            4.8946    -2.1309    -0.8454 C.ar    
  22 C22            5.1408    -3.4236    -1.2687 C.ar    
  23 C23            4.1075    -4.3401    -1.3276 C.ar    
  24 C24            6.5339    -3.8317    -1.6731 C.3     
  25 H25           -0.0298     1.9976     1.2374 H       
  26 H26            0.2615    -0.4184     1.6130 H       
  27 H27            1.7335    -0.8594    -2.3655 H       
  28 H28            1.4456     1.5572    -2.7399 H       
  29 H29            0.5661     2.9861    -0.9377 H       
  30 H30           -0.5858    -3.9849     0.9647 H       
  31 H31           -0.9314    -4.4925     3.3492 H       
  32 H32            0.4405    -3.3700     5.0584 H       
  33 H33            2.1585    -1.7405     4.3830 H       
  34 H34            2.5074    -1.2364     1.9981 H       
  35 H35           -1.7119    -2.4728     0.4400 H       
  36 H36           -1.6074    -1.3786    -0.9600 H       
  37 H37           -2.6313    -3.1203    -2.3976 H       
  38 H38           -2.7358    -4.2145    -0.9976 H       
  39 H39           -4.8009    -3.0347    -1.3611 H       
  40 H40           -4.1263    -2.5338     0.0741 H       
  41 H41            2.0224    -4.6818    -1.0027 H       
  42 H42            3.4243    -0.7464    -0.1441 H       
  43 H43            5.7008    -1.4134    -0.8045 H       
  44 H44            4.2998    -5.3501    -1.6584 H       
  45 H45            7.0692    -4.2093    -0.8019 H       
  46 H46            6.4781    -4.6124    -2.4317 H       
  47 H47            7.0622    -2.9686    -2.0781 H       
@<TRIPOS>BOND
   1    1    2 ar
   2    1    6 ar
   3    1   25 1
   4    2    3 ar
   5    2   26 1
   6    3    4 ar
   7    3    7 1
   8    4    5 ar
   9    4   27 1
  10    5    6 ar
  11    5   28 1
  12    6   29 1
  13    7    8 1
  14    7   14 1
  15    7   18 1
  16    8    9 ar
  17    8   13 ar
  18    9   10 ar
  19    9   30 1
  20   10   11 ar
  21   10   31 1
  22   11   12 ar
  23   11   32 1
  24   12   13 ar
  25   12   33 1
  26   13   34 1
  27   14   15 1
  28   15   16 1
  29   15   35 1
  30   15   36 1
  31   16   17 1
  32   16   37 1
  33   16   38 1
  34   17   39 1
  35   17   40 1
  36   18   19 ar
  37   18   20 ar
  38   19   23 ar
  39   19   41 1
  40   20   21 ar
  41   20   42 1
  42   21   22 ar
  43   21   43 1
  44   22   23 ar
  45   22   24 1
  46   23   44 1
  47   24   45 1
  48   24   46 1
  49   24   47 1

#	End of record

