#	Name: ASD01913075
#	Creating user name:	WinNT
#	Creation time:	15. 06. 2019 20:00

#	Modifying user name:	WinNT
#	Modification time:	15. 06. 2019 20:00

#	Program:	/corina/corina34_cracker 3.40 0067  02.08.2006

@<TRIPOS>MOLECULE
ASD01913075
  34   36    0    0    0
SMALL
NO_CHARGES


@<TRIPOS>ATOM
   1 C1            -0.0163     1.3503     0.0095 C.ar    
   2 O2             0.0021    -0.0041     0.0020 O.3     
   3 C3            -1.2382     2.0164     0.0305 C.ar    
   4 N4             1.1278     2.0150     0.0021 N.ar    
   5 C5             1.1694     3.3358     0.0097 C.ar    
   6 C6            -0.0220     4.0635     0.0206 C.ar    
   7 C7            -1.2508     3.3862     0.0360 C.ar    
   8 C8             1.2839    -0.6354    -0.0136 C.3     
   9 C9             1.1068    -2.1320    -0.0200 C.ar    
  10 C10            1.0141    -2.8119    -1.2199 C.ar    
  11 C11            1.0426    -2.8254     1.1741 C.ar    
  12 C12            0.8801    -4.1982     1.1683 C.ar    
  13 C13            0.7813    -4.8774    -0.0316 C.ar    
  14 C14            0.8515    -4.1846    -1.2258 C.ar    
  15 C15            2.5082     4.0235     0.0133 C.3     
  16 C16            2.3999     5.4469    -0.5265 C.3     
  17 C17            1.3354     6.2144     0.2685 C.3     
  18 C18            0.0051     5.5350     0.0161 C.2     
  19 O19           -1.0020     6.1809    -0.1828 O.2     
  20 H20           -2.1642     1.4607     0.0419 H       
  21 H21           -2.1831     3.9312     0.0476 H       
  22 H22            1.8284    -0.3302    -0.9072 H       
  23 H23            1.8454    -0.3398     0.8726 H       
  24 H24            1.0683    -2.2706    -2.1529 H       
  25 H25            1.1198    -2.2948     2.1116 H       
  26 H26            0.8307    -4.7401     2.1012 H       
  27 H27            0.6547    -5.9499    -0.0361 H       
  28 H28            0.7744    -4.7153    -2.1632 H       
  29 H29            2.8899     4.0566     1.0338 H       
  30 H30            3.2021     3.4577    -0.6083 H       
  31 H31            3.3621     5.9487    -0.4240 H       
  32 H32            2.1160     5.4161    -1.5784 H       
  33 H33            1.5720     6.1818     1.3320 H       
  34 H34            1.2935     7.2492    -0.0713 H       
@<TRIPOS>BOND
   1    1    2 1
   2    1    4 ar
   3    1    3 ar
   4    2    8 1
   5    3    7 ar
   6    3   20 1
   7    4    5 ar
   8    5    6 ar
   9    5   15 1
  10    6    7 ar
  11    6   18 1
  12    7   21 1
  13    8    9 1
  14    8   22 1
  15    8   23 1
  16    9   10 ar
  17    9   11 ar
  18   10   14 ar
  19   10   24 1
  20   11   12 ar
  21   11   25 1
  22   12   13 ar
  23   12   26 1
  24   13   14 ar
  25   13   27 1
  26   14   28 1
  27   15   16 1
  28   15   29 1
  29   15   30 1
  30   16   17 1
  31   16   31 1
  32   16   32 1
  33   17   18 1
  34   17   33 1
  35   17   34 1
  36   18   19 2

#	End of record

