#	Name: ASD03730482
#	Creating user name:	WinNT
#	Creation time:	15. 06. 2019 20:44

#	Modifying user name:	WinNT
#	Modification time:	15. 06. 2019 20:44

#	Program:	/corina/corina34_cracker 3.40 0067  02.08.2006

@<TRIPOS>MOLECULE
ASD03730482
  53   58    0    0    0
SMALL
NO_CHARGES


@<TRIPOS>ATOM
   1 C1            -0.0200     1.5001     0.0423 C.2     
   2 C2            -0.0030    -0.0067     0.0490 C.3     
   3 O3             1.0234     2.1185     0.0524 O.2     
   4 N4            -1.1946     2.1607     0.0195 N.am    
   5 O5             6.2005     2.8832     2.2524 O.3     
   6 C6             7.6155     2.8262     2.5123 C.3     
   7 O7             7.8138     1.5008     3.0385 O.3     
   8 C8             6.8125     0.7415     2.5041 C.ar    
   9 C9             5.8203     1.5921     2.0218 C.ar    
  10 C10            6.6654    -0.6290     2.3874 C.ar    
  11 C11            5.5292    -1.1680     1.7914 C.ar    
  12 C12            4.5412    -0.3084     1.3209 C.ar    
  13 C13            4.6876     1.0587     1.4303 C.ar    
  14 O14            5.1990    -2.4717     1.5641 O.3     
  15 C15            3.4449    -1.1780     0.7659 C.3     
  16 C16            3.7819    -2.5678     1.3229 C.3     
  17 N17            1.3835    -0.4794     0.0680 N.am    
  18 C18            2.0818    -0.7178     1.1961 C.2     
  19 C19            3.4129    -1.1689    -0.7337 C.ar    
  20 C20            4.3352    -1.4827    -1.7069 C.ar    
  21 C21            3.9971    -1.3710    -3.0438 C.ar    
  22 C22            2.7311    -0.9428    -3.4002 C.ar    
  23 C23            1.8042    -0.6263    -2.4291 C.ar    
  24 C24            2.1357    -0.7362    -1.0808 C.ar    
  25 O25            1.6865    -0.5867     2.3352 O.2     
  26 C26           -1.2153     3.5572     0.1329 C.ar    
  27 C27           -2.1898     4.2978    -0.5331 C.ar    
  28 C28           -2.2054     5.6779    -0.4173 C.ar    
  29 C29           -1.2553     6.3179     0.3573 C.ar    
  30 C30           -0.2880     5.5838     1.0180 C.ar    
  31 C31           -0.2696     4.2055     0.9129 C.ar    
  32 O32           -3.1228     3.6671    -1.2951 O.3     
  33 C33           -4.0909     4.4904    -1.9487 C.3     
  34 H34           -0.5236    -0.3721     0.9342 H       
  35 H35           -0.5018    -0.3797    -0.8456 H       
  36 H36           -2.0256     1.6694    -0.0755 H       
  37 H37            8.1800     2.9603     1.5895 H       
  38 H38            7.9002     3.5774     3.2491 H       
  39 H39            7.4375    -1.2852     2.7612 H       
  40 H40            3.9168     1.7148     1.0539 H       
  41 H41            3.5661    -3.3425     0.5872 H       
  42 H42            3.2429    -2.7536     2.2519 H       
  43 H43            5.3231    -1.8167    -1.4264 H       
  44 H44            4.7198    -1.6179    -3.8074 H       
  45 H45            2.4673    -0.8554    -4.4438 H       
  46 H46            0.8179    -0.2921    -2.7152 H       
  47 H47           -2.9595     6.2544    -0.9324 H       
  48 H48           -1.2688     7.3941     0.4462 H       
  49 H49            0.4522     6.0880     1.6215 H       
  50 H50            0.4842     3.6341     1.4343 H       
  51 H51           -4.6530     5.0522    -1.2027 H       
  52 H52           -3.5843     5.1837    -2.6201 H       
  53 H53           -4.7737     3.8631    -2.5218 H       
@<TRIPOS>BOND
   1    1    2 1
   2    1    3 2
   3    1    4 am
   4    2   17 1
   5    2   34 1
   6    2   35 1
   7    4   26 1
   8    4   36 1
   9    5    6 1
  10    5    9 1
  11    6    7 1
  12    6   37 1
  13    6   38 1
  14    7    8 1
  15    8    9 ar
  16    8   10 ar
  17    9   13 ar
  18   10   11 ar
  19   10   39 1
  20   11   12 ar
  21   11   14 1
  22   12   13 ar
  23   12   15 1
  24   13   40 1
  25   14   16 1
  26   15   16 1
  27   15   18 1
  28   15   19 1
  29   16   41 1
  30   16   42 1
  31   17   18 am
  32   17   24 1
  33   18   25 2
  34   19   20 ar
  35   19   24 ar
  36   20   21 ar
  37   20   43 1
  38   21   22 ar
  39   21   44 1
  40   22   23 ar
  41   22   45 1
  42   23   24 ar
  43   23   46 1
  44   26   27 ar
  45   26   31 ar
  46   27   28 ar
  47   27   32 1
  48   28   29 ar
  49   28   47 1
  50   29   30 ar
  51   29   48 1
  52   30   31 ar
  53   30   49 1
  54   31   50 1
  55   32   33 1
  56   33   51 1
  57   33   52 1
  58   33   53 1

#	End of record

