#	Name: ASD08178258
#	Creating user name:	WinNT
#	Creation time:	15. 06. 2019 21:18

#	Modifying user name:	WinNT
#	Modification time:	15. 06. 2019 21:18

#	Program:	/corina/corina34_cracker 3.40 0067  02.08.2006

@<TRIPOS>MOLECULE
ASD08178258
  76   79    0    0    0
SMALL
NO_CHARGES


@<TRIPOS>ATOM
   1 N1             0.5045     2.3095     0.1945 N.am    
   2 C2             0.4824     0.9155     0.1677 C.ar    
   3 C3             1.6685     0.1995     0.0188 C.ar    
   4 N4            -0.6656     0.2659     0.2893 N.ar    
   5 N5            -0.7288    -1.0159     0.2701 N.ar    
   6 C6             0.3424    -1.7716     0.1285 C.ar    
   7 C7             1.5929    -1.1849    -0.0012 C.ar    
   8 C8             0.2091    -3.2726     0.1136 C.3     
   9 C9            -0.5162    -3.7328     1.3797 C.3     
  10 C10           -0.6516    -5.2567     1.3646 C.3     
  11 C11           -1.3769    -5.7169     2.6307 C.3     
  12 C12           -1.5102    -7.2179     2.6158 C.2     
  13 N13           -0.6603    -8.0652     3.1030 N.2     
  14 N14           -0.9545    -9.2879     2.9914 N.2     
  15 C15           -2.0732    -9.5877     2.4035 C.2     
  16 S16           -2.8554    -8.1363     1.9386 S.3     
  17 N17           -2.5583   -10.8738     2.1916 N.am    
  18 C18           -1.8485   -11.9396     2.6120 C.2     
  19 C19           -2.3741   -13.3331     2.3824 C.3     
  20 O20           -0.7867   -11.7771     3.1751 O.2     
  21 C21           -1.3991   -14.3364     2.9426 C.ar    
  22 C22           -1.5180   -14.7567     4.2544 C.ar    
  23 C23           -0.6255   -15.6776     4.7722 C.ar    
  24 C24            0.3878   -16.1801     3.9800 C.ar    
  25 C25            0.5099   -15.7600     2.6618 C.ar    
  26 C26           -0.3911   -14.8395     2.1433 C.ar    
  27 N27            1.5356   -16.2672     1.8564 N.am    
  28 C28           -0.6516     3.0012     0.2346 C.2     
  29 O29           -1.7111     2.4166     0.1537 O.2     
  30 C30           -0.6277     4.5010     0.3800 C.3     
  31 C31           -2.0400     5.0265     0.3981 C.ar    
  32 C32           -2.7152     5.1524     1.5977 C.ar    
  33 C33           -4.0107     5.6344     1.6144 C.ar    
  34 C34           -4.6308     5.9909     0.4314 C.ar    
  35 C35           -3.9552     5.8658    -0.7681 C.ar    
  36 C36           -2.6582     5.3879    -0.7843 C.ar    
  37 C37            2.7397   -16.5455     2.3943 C.2     
  38 C38            3.8748   -16.9930     1.5099 C.3     
  39 O39            2.9096   -16.4359     3.5902 O.2     
  40 N40            5.0700   -17.2312     2.3300 N.3     
  41 C41            6.1229   -17.8914     1.5468 C.3     
  42 C42            5.5606   -15.9794     2.9218 C.3     
  43 H43            1.3520     2.7814     0.1883 H       
  44 H44            2.6169     0.7069    -0.0783 H       
  45 H45            2.4807    -1.7886    -0.1183 H       
  46 H46           -0.3616    -3.5780    -0.7634 H       
  47 H47            1.2001    -3.7251     0.0779 H       
  48 H48            0.0545    -3.4274     2.2567 H       
  49 H49           -1.5073    -3.2803     1.4155 H       
  50 H50           -1.2223    -5.5621     0.4876 H       
  51 H51            0.3394    -5.7092     1.3288 H       
  52 H52           -0.8062    -5.4115     3.5077 H       
  53 H53           -2.3679    -5.2644     2.6665 H       
  54 H54           -3.4075   -11.0037     1.7412 H       
  55 H55           -3.3371   -13.4449     2.8807 H       
  56 H56           -2.4966   -13.5036     1.3128 H       
  57 H57           -2.3092   -14.3647     4.8762 H       
  58 H58           -0.7210   -16.0039     5.7973 H       
  59 H59            1.0849   -16.8987     4.3851 H       
  60 H60           -0.2991   -14.5111     1.1186 H       
  61 H61            1.3801   -16.4184     0.9110 H       
  62 H62           -0.1287     4.7678     1.3116 H       
  63 H63           -0.0878     4.9388    -0.4596 H       
  64 H64           -2.2308     4.8740     2.5219 H       
  65 H65           -4.5385     5.7322     2.5515 H       
  66 H66           -5.6432     6.3668     0.4443 H       
  67 H67           -4.4398     6.1439    -1.6923 H       
  68 H68           -2.1304     5.2901    -1.7214 H       
  69 H69            3.5956   -17.9141     0.9984 H       
  70 H70            4.0883   -16.2186     0.7730 H       
  71 H71            6.3986   -17.2589     0.7029 H       
  72 H72            6.9962   -18.0559     2.1780 H       
  73 H73            5.7553   -18.8491     1.1783 H       
  74 H74            4.7841   -15.5471     3.5529 H       
  75 H75            6.4458   -16.1844     3.5238 H       
  76 H76            5.8158   -15.2777     2.1277 H       
@<TRIPOS>BOND
   1    1    2 1
   2    1   28 am
   3    1   43 1
   4    2    3 ar
   5    2    4 ar
   6    3    7 ar
   7    3   44 1
   8    4    5 ar
   9    5    6 ar
  10    6    7 ar
  11    6    8 1
  12    7   45 1
  13    8    9 1
  14    8   46 1
  15    8   47 1
  16    9   10 1
  17    9   48 1
  18    9   49 1
  19   10   11 1
  20   10   50 1
  21   10   51 1
  22   11   12 1
  23   11   52 1
  24   11   53 1
  25   12   13 2
  26   12   16 1
  27   13   14 1
  28   14   15 2
  29   15   16 1
  30   15   17 1
  31   17   18 am
  32   17   54 1
  33   18   19 1
  34   18   20 2
  35   19   21 1
  36   19   55 1
  37   19   56 1
  38   21   22 ar
  39   21   26 ar
  40   22   23 ar
  41   22   57 1
  42   23   24 ar
  43   23   58 1
  44   24   25 ar
  45   24   59 1
  46   25   26 ar
  47   25   27 1
  48   26   60 1
  49   27   37 am
  50   27   61 1
  51   28   29 2
  52   28   30 1
  53   30   31 1
  54   30   62 1
  55   30   63 1
  56   31   32 ar
  57   31   36 ar
  58   32   33 ar
  59   32   64 1
  60   33   34 ar
  61   33   65 1
  62   34   35 ar
  63   34   66 1
  64   35   36 ar
  65   35   67 1
  66   36   68 1
  67   37   38 1
  68   37   39 2
  69   38   40 1
  70   38   69 1
  71   38   70 1
  72   40   41 1
  73   40   42 1
  74   41   71 1
  75   41   72 1
  76   41   73 1
  77   42   74 1
  78   42   75 1
  79   42   76 1

#	End of record

