#	Name: ASD08070031
#	Creating user name:	WinNT
#	Creation time:	15. 06. 2019 21:14

#	Modifying user name:	WinNT
#	Modification time:	15. 06. 2019 21:14

#	Program:	/corina/corina34_cracker 3.40 0067  02.08.2006

@<TRIPOS>MOLECULE
ASD08070031
  42   43    0    0    0
SMALL
NO_CHARGES


@<TRIPOS>ATOM
   1 C1             0.1166     0.6089     0.5550 C.ar    
   2 C2            -0.0184    -0.7869     0.4630 C.ar    
   3 C3            -1.2859    -1.3519     0.3507 C.ar    
   4 C4            -2.4054    -0.5244     0.3309 C.ar    
   5 C5            -2.2536     0.8644     0.4236 C.ar    
   6 C6            -1.0111     1.4191     0.5388 C.ar    
   7 O7             1.4412     0.8531     0.6516 O.3     
   8 C8             2.0880    -0.3228     0.6212 C.2     
   9 N9             1.2411    -1.3011     0.5101 N.2     
  10 C10            3.5840    -0.4847     0.7041 C.3     
  11 C11           -3.7552    -1.1124     0.2116 C.2     
  12 N12           -4.8396    -0.3123     0.1925 N.am    
  13 O13           -3.8880    -2.3181     0.1308 O.2     
  14 C14           -6.1783    -0.8955     0.0742 C.3     
  15 C15           -7.2069     0.0616     0.6798 C.3     
  16 C16           -6.5000    -1.1238    -1.3803 C.2     
  17 O17           -5.6937    -0.8296    -2.2308 O.2     
  18 O18           -7.6822    -1.6541    -1.7309 O.3     
  19 C19           -7.9238    -1.8458    -3.1498 C.3     
  20 C20           -6.9439     0.2105     2.1797 C.3     
  21 C21           -7.8777     1.2755     2.7580 C.3     
  22 C22           -7.2008    -1.1265     2.8777 C.3     
  23 H23           -1.3997    -2.4235     0.2790 H       
  24 H24           -3.1257     1.5013     0.4074 H       
  25 H25           -0.9046     2.4915     0.6096 H       
  26 H26            4.0512     0.4961     0.7923 H       
  27 H27            3.8364    -1.0872     1.5767 H       
  28 H28            3.9463    -0.9801    -0.1967 H       
  29 H29           -4.7336     0.6498     0.2570 H       
  30 H30           -6.2088    -1.8461     0.6066 H       
  31 H31           -7.1245     1.0359     0.1980 H       
  32 H32           -8.2095    -0.3368     0.5246 H       
  33 H33           -8.9129    -2.2803    -3.2945 H       
  34 H34           -7.8710    -0.8843    -3.6605 H       
  35 H35           -7.1688    -2.5168    -3.5595 H       
  36 H36           -5.9081     0.5103     2.3389 H       
  37 H37           -7.7528     1.3195     3.8399 H       
  38 H38           -7.6350     2.2457     2.3245 H       
  39 H39           -8.9107     1.0201     2.5216 H       
  40 H40           -6.5355    -1.8853     2.4657 H       
  41 H41           -7.0135    -1.0205     3.9462 H       
  42 H42           -8.2366    -1.4263     2.7185 H       
@<TRIPOS>BOND
   1    1    2 ar
   2    1    7 1
   3    1    6 ar
   4    2    3 ar
   5    2    9 1
   6    3    4 ar
   7    3   23 1
   8    4    5 ar
   9    4   11 1
  10    5    6 ar
  11    5   24 1
  12    6   25 1
  13    7    8 1
  14    8    9 2
  15    8   10 1
  16   10   26 1
  17   10   27 1
  18   10   28 1
  19   11   12 am
  20   11   13 2
  21   12   14 1
  22   12   29 1
  23   14   15 1
  24   14   16 1
  25   14   30 1
  26   15   20 1
  27   15   31 1
  28   15   32 1
  29   16   17 2
  30   16   18 1
  31   18   19 1
  32   19   33 1
  33   19   34 1
  34   19   35 1
  35   20   21 1
  36   20   22 1
  37   20   36 1
  38   21   37 1
  39   21   38 1
  40   21   39 1
  41   22   40 1
  42   22   41 1
  43   22   42 1

#	End of record

