#	Name: ASD01916226
#	Creating user name:	WinNT
#	Creation time:	15. 06. 2019 20:06

#	Modifying user name:	WinNT
#	Modification time:	15. 06. 2019 20:06

#	Program:	/corina/corina34_cracker 3.40 0067  02.08.2006

@<TRIPOS>MOLECULE
ASD01916226
  23   24    0    0    0
SMALL
NO_CHARGES


@<TRIPOS>ATOM
   1 C1            -0.0142     1.3271     0.0629 C.2     
   2 N2             0.0039    -0.0043     0.0569 N.2     
   3 C3             1.1517    -0.6663    -0.0093 C.2     
   4 C4             2.3658     0.0478    -0.0740 C.2     
   5 C5             2.3316     1.4015    -0.0671 C.2     
   6 N6             1.1269     2.0378     0.0022 N.am    
   7 O7            -1.0831     1.9123     0.1192 O.2     
   8 C8             1.0774     3.4380     0.0103 C.ar    
   9 C9             1.5709     4.1449     1.0988 C.ar    
  10 C10            1.5212     5.5250     1.1049 C.ar    
  11 C11            0.9792     6.2040     0.0264 C.ar    
  12 C12            0.4860     5.5008    -1.0600 C.ar    
  13 C13            0.5400     4.1209    -1.0727 C.ar    
  14 F14            0.9310     7.5541     0.0344 F       
  15 N15            1.1574    -2.0423    -0.0143 N.pl3   
  16 H16            3.3083    -0.4767    -0.1280 H       
  17 H17            3.2480     1.9711    -0.1155 H       
  18 H18            1.9931     3.6157     1.9403 H       
  19 H19            1.9049     6.0751     1.9513 H       
  20 H20            0.0634     6.0321    -1.8999 H       
  21 H21            0.1600     3.5731    -1.9224 H       
  22 H22            0.3206    -2.5309     0.0306 H       
  23 H23            1.9981    -2.5236    -0.0628 H       
@<TRIPOS>BOND
   1    1    2 1
   2    1    6 am
   3    1    7 2
   4    2    3 2
   5    3    4 1
   6    3   15 1
   7    4    5 2
   8    4   16 1
   9    5    6 1
  10    5   17 1
  11    6    8 1
  12    8    9 ar
  13    8   13 ar
  14    9   10 ar
  15    9   18 1
  16   10   11 ar
  17   10   19 1
  18   11   12 ar
  19   11   14 1
  20   12   13 ar
  21   12   20 1
  22   13   21 1
  23   15   22 1
  24   15   23 1

#	End of record

