#	Name: ASD03731681
#	Creating user name:	WinNT
#	Creation time:	15. 06. 2019 20:46

#	Modifying user name:	WinNT
#	Modification time:	15. 06. 2019 20:46

#	Program:	/corina/corina34_cracker 3.40 0067  02.08.2006

@<TRIPOS>MOLECULE
ASD03731681
  33   34    0    0    0
SMALL
NO_CHARGES


@<TRIPOS>ATOM
   1 C1            -0.4032     1.1035    -1.9609 C.2     
   2 C2            -0.2820    -0.2745    -1.4504 C.ar    
   3 C3             0.9017    -0.9950    -1.6487 C.ar    
   4 C4             1.0104    -2.2846    -1.1684 C.ar    
   5 C5            -0.0518    -2.8666    -0.4899 C.ar    
   6 C6            -1.2312    -2.1533    -0.2910 C.ar    
   7 C7            -1.3468    -0.8634    -0.7618 C.ar    
   8 O8             0.5259     1.6157    -2.5552 O.2     
   9 N9            -1.5458     1.7934    -1.7737 N.am    
  10 S10           -1.6819     3.3410    -2.3471 S.o2    
  11 O11           -2.9840     3.7485    -1.9500 O.2     
  12 O12           -0.5250     4.0011    -1.8521 O.2     
  13 C13           -1.5921     3.1652    -4.1503 C.3     
  14 O14            0.0593    -4.1350    -0.0193 O.3     
  15 C15            1.2617    -4.7566    -0.1387 C.ar    
  16 C16            2.2130    -4.6273     0.8628 C.ar    
  17 C17            3.4361    -5.2617     0.7388 C.ar    
  18 C18            3.7100    -6.0246    -0.3846 C.ar    
  19 C19            2.7625    -6.1536    -1.3825 C.ar    
  20 C20            1.5375    -5.5263    -1.2597 C.ar    
  21 F21            4.3636    -5.1368     1.7130 F       
  22 F22           -2.2617    -2.7249     0.3697 F       
  23 F23            1.9356    -0.4295    -2.3093 F       
  24 H24            1.9230    -2.8418    -1.3211 H       
  25 H25           -2.2603    -0.3095    -0.6026 H       
  26 H26           -2.2883     1.3834    -1.3032 H       
  27 H27           -2.4085     2.5304    -4.4946 H       
  28 H28           -1.6744     4.1475    -4.6156 H       
  29 H29           -0.6393     2.7122    -4.4241 H       
  30 H30            1.9992    -4.0318     1.7381 H       
  31 H31            4.6654    -6.5189    -0.4809 H       
  32 H32            2.9784    -6.7487    -2.2575 H       
  33 H33            0.7965    -5.6314    -2.0384 H       
@<TRIPOS>BOND
   1    1    2 1
   2    1    8 2
   3    1    9 am
   4    2    3 ar
   5    2    7 ar
   6    3    4 ar
   7    3   23 1
   8    4    5 ar
   9    4   24 1
  10    5    6 ar
  11    5   14 1
  12    6    7 ar
  13    6   22 1
  14    7   25 1
  15    9   10 am
  16    9   26 1
  17   10   11 2
  18   10   12 2
  19   10   13 1
  20   13   27 1
  21   13   28 1
  22   13   29 1
  23   14   15 1
  24   15   16 ar
  25   15   20 ar
  26   16   17 ar
  27   16   30 1
  28   17   18 ar
  29   17   21 1
  30   18   19 ar
  31   18   31 1
  32   19   20 ar
  33   19   32 1
  34   20   33 1

#	End of record

