#	Name: ASD01120288
#	Creating user name:	WinNT
#	Creation time:	15. 06. 2019 18:59

#	Modifying user name:	WinNT
#	Modification time:	15. 06. 2019 18:59

#	Program:	/corina/corina34_cracker 3.40 0067  02.08.2006

@<TRIPOS>MOLECULE
ASD01120288
  42   44    0    0    0
SMALL
NO_CHARGES


@<TRIPOS>ATOM
   1 C1             0.3279     1.2576    -0.6227 C.3     
   2 C2             0.0734    -0.2250    -0.3434 C.3     
   3 O3             0.9761    -0.6832     0.6975 O.3     
   4 C4             0.8807    -1.9776     1.0646 C.2     
   5 O5             0.0649    -2.7029     0.5289 O.2     
   6 C6             1.7610    -2.5102     2.1102 C.2     
   7 N7             2.7251    -1.7894     2.7925 N.pl3   
   8 C8             3.3450    -2.6238     3.6930 C.ar    
   9 C9             2.7515    -3.8945     3.5672 C.ar    
  10 C10            1.7568    -3.7913     2.5692 C.2     
  11 C11            3.1988    -4.9547     4.3788 C.ar    
  12 C12            4.2158    -4.7341     5.2897 C.ar    
  13 C13            4.7932    -3.4784     5.4059 C.ar    
  14 C14            4.3666    -2.4312     4.6186 C.ar    
  15 N15            4.9960    -1.0984     4.7576 N.pl3   
  16 O16            5.8899    -0.9285     5.5673 O.2     
  17 O17            4.6198    -0.1718     4.0623 O.2     
  18 N18            2.6208    -6.2162     4.2655 N.pl3   
  19 C19            3.1686    -7.3001     4.9561 C.ar    
  20 C20            2.3367    -8.2094     5.5970 C.ar    
  21 C21            2.8816    -9.2801     6.2784 C.ar    
  22 C22            4.2534    -9.4472     6.3235 C.ar    
  23 C23            5.0846    -8.5436     5.6864 C.ar    
  24 C24            4.5465    -7.4742     4.9986 C.ar    
  25 C25            6.5792    -8.7299     5.7383 C.3     
  26 F26            6.8808    -9.8760     6.4818 F       
  27 F27            7.0767    -8.8728     4.4386 F       
  28 F28            7.1675    -7.6138     6.3428 F       
  29 H29            1.3587     1.3941    -0.9498 H       
  30 H30           -0.3498     1.6016    -1.4041 H       
  31 H31            0.1560     1.8334     0.2867 H       
  32 H32           -0.9574    -0.3614    -0.0164 H       
  33 H33            0.2453    -0.8008    -1.2528 H       
  34 H34            2.9300    -0.8510     2.6578 H       
  35 H35            1.1125    -4.5879     2.2276 H       
  36 H36            4.5621    -5.5442     5.9144 H       
  37 H37            5.5863    -3.3197     6.1215 H       
  38 H38            1.8379    -6.3426     3.7070 H       
  39 H39            1.2651    -8.0791     5.5627 H       
  40 H40            2.2354    -9.9874     6.7769 H       
  41 H41            4.6768   -10.2849     6.8576 H       
  42 H42            5.1961    -6.7691     4.5014 H       
@<TRIPOS>BOND
   1    1    2 1
   2    1   29 1
   3    1   30 1
   4    1   31 1
   5    2    3 1
   6    2   32 1
   7    2   33 1
   8    3    4 1
   9    4    5 2
  10    4    6 1
  11    6    7 1
  12    6   10 2
  13    7    8 1
  14    7   34 1
  15    8    9 ar
  16    8   14 ar
  17    9   10 1
  18    9   11 ar
  19   10   35 1
  20   11   12 ar
  21   11   18 1
  22   12   13 ar
  23   12   36 1
  24   13   14 ar
  25   13   37 1
  26   14   15 1
  27   15   16 2
  28   15   17 2
  29   18   19 1
  30   18   38 1
  31   19   20 ar
  32   19   24 ar
  33   20   21 ar
  34   20   39 1
  35   21   22 ar
  36   21   40 1
  37   22   23 ar
  38   22   41 1
  39   23   24 ar
  40   23   25 1
  41   24   42 1
  42   25   26 1
  43   25   27 1
  44   25   28 1

#	End of record

