#	Name: ASD01940063
#	Creating user name:	WinNT
#	Creation time:	15. 06. 2019 20:11

#	Modifying user name:	WinNT
#	Modification time:	15. 06. 2019 20:11

#	Program:	/corina/corina34_cracker 3.40 0067  02.08.2006

@<TRIPOS>MOLECULE
ASD01940063
  42   43    0    0    0
SMALL
NO_CHARGES


@<TRIPOS>ATOM
   1 C1            -0.0966     1.6229     0.0485 C.2     
   2 C2            -0.0052     0.2190    -0.4284 C.2     
   3 C3            -0.4542     1.8865     1.3585 C.2     
   4 C4            -1.1420    -0.5671    -0.4864 C.2     
   5 S5            -0.6040     3.5523     1.9128 S.3     
   6 S6            -1.0269    -2.2450    -1.0118 S.3     
   7 C7             0.1913     2.7033    -0.8463 C.1     
   8 C8             1.2596    -0.3205    -0.8282 C.1     
   9 N9             0.4197     3.5603    -1.5561 N.1     
  10 N10            2.2629    -0.7485    -1.1453 N.1     
  11 C11           -0.8950     3.2787     3.6289 C.ar    
  12 C12           -1.9025    -2.1486    -2.5378 C.ar    
  13 C13            0.1607     2.9249     4.4703 C.ar    
  14 C14           -2.0518    -3.2862    -3.3322 C.ar    
  15 N15           -0.6931     0.8470     2.2294 N.pl3   
  16 N16           -2.3634    -0.0383    -0.1336 N.pl3   
  17 N17            1.4536     2.7864     3.9536 N.pl3   
  18 N18           -1.5065    -4.5068    -2.9194 N.pl3   
  19 C19           -2.4505    -0.9431    -2.9503 C.ar    
  20 C20           -2.1731     3.4200     4.1489 C.ar    
  21 C21           -0.0753     2.7117     5.8197 C.ar    
  22 C22           -2.7423    -3.2033    -4.5315 C.ar    
  23 C23           -2.3989     3.2052     5.4959 C.ar    
  24 C24           -3.1376    -0.8700    -4.1479 C.ar    
  25 C25           -3.2805    -1.9958    -4.9376 C.ar    
  26 C26           -1.3540     2.8492     6.3282 C.ar    
  27 H27           -0.5147    -0.0661     1.9552 H       
  28 H28           -1.0398     1.0280     3.1170 H       
  29 H29           -2.4437     0.9082     0.0625 H       
  30 H30           -3.1435    -0.6124    -0.0812 H       
  31 H31            1.6171     2.9363     3.0093 H       
  32 H32            2.1863     2.5404     4.5397 H       
  33 H33           -1.0239    -4.5632    -2.0799 H       
  34 H34           -1.6111    -5.2966    -3.4727 H       
  35 H35           -2.3409    -0.0616    -2.3360 H       
  36 H36           -2.9917     3.6980     3.5017 H       
  37 H37            0.7394     2.4378     6.4737 H       
  38 H38           -2.8598    -4.0817    -5.1489 H       
  39 H39           -3.3948     3.3156     5.8991 H       
  40 H40           -3.5637     0.0695    -4.4677 H       
  41 H41           -3.8175    -1.9329    -5.8725 H       
  42 H42           -1.5361     2.6820     7.3795 H       
@<TRIPOS>BOND
   1    1    2 1
   2    1    3 2
   3    1    7 1
   4    2    4 2
   5    2    8 1
   6    3    5 1
   7    3   15 1
   8    4    6 1
   9    4   16 1
  10    5   11 1
  11    6   12 1
  12    7    9 3
  13    8   10 3
  14   11   13 ar
  15   11   20 ar
  16   12   14 ar
  17   12   19 ar
  18   13   17 1
  19   13   21 ar
  20   14   18 1
  21   14   22 ar
  22   15   27 1
  23   15   28 1
  24   16   29 1
  25   16   30 1
  26   17   31 1
  27   17   32 1
  28   18   33 1
  29   18   34 1
  30   19   24 ar
  31   19   35 1
  32   20   23 ar
  33   20   36 1
  34   21   26 ar
  35   21   37 1
  36   22   25 ar
  37   22   38 1
  38   23   26 ar
  39   23   39 1
  40   24   25 ar
  41   24   40 1
  42   25   41 1
  43   26   42 1

#	End of record

