#	Name: ASD01209202
#	Creating user name:	WinNT
#	Creation time:	15. 06. 2019 19:11

#	Modifying user name:	WinNT
#	Modification time:	15. 06. 2019 19:11

#	Program:	/corina/corina34_cracker 3.40 0067  02.08.2006

@<TRIPOS>MOLECULE
ASD01209202
  74   76    0    0    0
SMALL
NO_CHARGES


@<TRIPOS>ATOM
   1 O1             0.1515     0.6559     1.4860 O.3     
   2 O2             1.9188     1.7608     3.0885 O.3     
   3 C3             6.4652     8.8500     5.0593 C.ar    
   4 C4             7.7157     9.3877     4.7921 C.ar    
   5 C5             8.3980     9.0280     3.6387 C.ar    
   6 C6             7.8330     8.1292     2.7494 C.ar    
   7 C7             6.5752     7.5859     3.0142 C.ar    
   8 C8             5.8949     7.9463     4.1778 C.ar    
   9 O9             9.6225     9.5585     3.3813 O.3     
  10 C10            5.9677     6.6270     2.0674 C.2     
  11 N11            4.7528     6.1034     2.3250 N.am    
  12 O12            6.5639     6.3106     1.0563 O.2     
  13 C13            4.1820     5.2024     1.4353 C.2     
  14 P14            1.5273     1.4895     1.5505 P.3     
  15 O15            2.6051     0.7142     0.8965 O.2     
  16 C16            1.3145     3.0813     0.6878 C.3     
  17 N17            3.0229     4.6420     1.5872 N.2     
  18 S18            4.9025     4.6765    -0.0232 S.3     
  19 C19            3.5050     3.6577    -0.3587 C.2     
  20 C20            2.6340     3.8078     0.6412 C.2     
  21 C21            0.0260    -0.6785     1.9816 C.3     
  22 C22           -1.4064    -1.1706     1.7646 C.3     
  23 C23            2.2545     0.7147     4.0023 C.3     
  24 C24            2.5725     1.3170     5.3724 C.3     
  25 O25            5.8010     9.2061     6.1903 O.3     
  26 C26            4.4674     8.7155     6.3411 C.3     
  27 C27            4.5065     7.3063     6.9356 C.3     
  28 C28            3.6859     9.6416     7.2752 C.3     
  29 C29           10.1978    10.3846     4.3955 C.3     
  30 C30           11.7227    10.3625     4.2670 C.3     
  31 C31           12.3372    11.2212     5.3768 C.3     
  32 N32           11.7461    12.5650     5.3171 N.am    
  33 C33           10.2828    12.6948     5.3419 C.3     
  34 C34            9.6912    11.8195     4.2324 C.3     
  35 C35           12.5312    13.6578     5.2414 C.2     
  36 O36           11.9760    14.8832     5.1873 O.3     
  37 O37           13.7401    13.5372     5.2221 O.2     
  38 C38           12.8824    16.0147     5.1070 C.3     
  39 H39            8.1593    10.0886     5.4837 H       
  40 H40            8.3646     7.8501     1.8517 H       
  41 H41            4.9213     7.5282     4.3866 H       
  42 H42            4.2771     6.3558     3.1318 H       
  43 H43            0.9635     2.8999    -0.3281 H       
  44 H44            0.5838     3.6890     1.2216 H       
  45 H45            3.3743     3.0251    -1.2242 H       
  46 H46            0.7187    -1.3304     1.4493 H       
  47 H47            0.2581    -0.6939     3.0465 H       
  48 H48           -2.0991    -0.5186     2.2968 H       
  49 H49           -1.6384    -1.1552     0.6997 H       
  50 H50           -1.5021    -2.1884     2.1426 H       
  51 H51            1.4129     0.0281     4.0936 H       
  52 H52            3.1257     0.1744     3.6319 H       
  53 H53            1.7013     1.8573     5.7428 H       
  54 H54            2.8285     0.5190     6.0694 H       
  55 H55            3.4141     2.0036     5.2810 H       
  56 H56            3.9790     8.6855     5.3671 H       
  57 H57            3.4892     6.9321     7.0507 H       
  58 H58            5.0633     6.6465     6.2702 H       
  59 H59            4.9949     7.3363     7.9096 H       
  60 H60            3.6580    10.6456     6.8517 H       
  61 H61            2.6686     9.2674     7.3903 H       
  62 H62            4.1743     9.6716     8.2492 H       
  63 H63            9.9106    10.0077     5.3771 H       
  64 H64           12.0807     9.3372     4.3599 H       
  65 H65           12.0117    10.7626     3.2951 H       
  66 H66           12.1250    10.7714     6.3467 H       
  67 H67           13.4153    11.2895     5.2313 H       
  68 H68            9.9030    12.3652     6.3089 H       
  69 H69           10.0053    13.7353     5.1734 H       
  70 H70            9.9994    12.2059     3.2609 H       
  71 H71            8.6035    11.8313     4.3008 H       
  72 H72           13.5295    16.0248     5.9841 H       
  73 H73           13.4915    15.9291     4.2071 H       
  74 H74           12.3067    16.9395     5.0696 H       
@<TRIPOS>BOND
   1    1   21 1
   2    1   14 1
   3    2   23 1
   4    2   14 1
   5    3    4 ar
   6    3   25 1
   7    3    8 ar
   8    4    5 ar
   9    4   39 1
  10    5    6 ar
  11    5    9 1
  12    6    7 ar
  13    6   40 1
  14    7    8 ar
  15    7   10 1
  16    8   41 1
  17    9   29 1
  18   10   11 am
  19   10   12 2
  20   11   13 1
  21   11   42 1
  22   13   17 2
  23   13   18 1
  24   14   15 2
  25   14   16 1
  26   16   20 1
  27   16   43 1
  28   16   44 1
  29   17   20 1
  30   18   19 1
  31   19   20 2
  32   19   45 1
  33   21   22 1
  34   21   46 1
  35   21   47 1
  36   22   48 1
  37   22   49 1
  38   22   50 1
  39   23   24 1
  40   23   51 1
  41   23   52 1
  42   24   53 1
  43   24   54 1
  44   24   55 1
  45   25   26 1
  46   26   27 1
  47   26   28 1
  48   26   56 1
  49   27   57 1
  50   27   58 1
  51   27   59 1
  52   28   60 1
  53   28   61 1
  54   28   62 1
  55   29   30 1
  56   29   34 1
  57   29   63 1
  58   30   31 1
  59   30   64 1
  60   30   65 1
  61   31   32 1
  62   31   66 1
  63   31   67 1
  64   32   33 1
  65   32   35 am
  66   33   34 1
  67   33   68 1
  68   33   69 1
  69   34   70 1
  70   34   71 1
  71   35   36 1
  72   35   37 2
  73   36   38 1
  74   38   72 1
  75   38   73 1
  76   38   74 1

#	End of record

