#	Name: ASD03320134
#	Creating user name:	WinNT
#	Creation time:	15. 06. 2019 20:36

#	Modifying user name:	WinNT
#	Modification time:	15. 06. 2019 20:36

#	Program:	/corina/corina34_cracker 3.40 0067  02.08.2006

@<TRIPOS>MOLECULE
ASD03320134
  30   31    0    0    0
SMALL
NO_CHARGES


@<TRIPOS>ATOM
   1 C1            -0.1749     1.4735    -0.5686 C.2     
   2 C2            -0.1527    -0.0034    -0.5721 C.ar    
   3 C3             0.8995    -0.6870    -1.1857 C.ar    
   4 C4             0.9153    -2.0659    -1.1855 C.ar    
   5 C5            -0.1116    -2.7736    -0.5772 C.ar    
   6 C6            -1.1578    -2.0994     0.0329 C.ar    
   7 C7            -1.1806    -0.7210     0.0430 C.ar    
   8 O8             0.7238     2.0962    -1.1004 O.2     
   9 N9            -1.1942     2.1307     0.0193 N.am    
  10 F10           -0.0919    -4.1244    -0.5801 F       
  11 C11           -1.1618     3.5271     0.1194 C.ar    
  12 C12           -2.3383     4.2581     0.0198 C.ar    
  13 C13           -2.3056     5.6350     0.1191 C.ar    
  14 C14           -1.0980     6.2880     0.3184 C.ar    
  15 C15            0.0777     5.5584     0.4176 C.ar    
  16 C16            0.0459     4.1811     0.3242 C.ar    
  17 O17           -1.0667     7.6438     0.4160 O.3     
  18 C18            0.2110     8.2501     0.6210 C.3     
  19 F19            0.7670     7.7744     1.8134 F       
  20 F20            1.0556     7.9306    -0.4475 F       
  21 Cl21           0.0179    10.0400     0.7201 Cl      
  22 Br22           2.3384    -2.9938    -2.0160 Br      
  23 H23            1.6989    -0.1368    -1.6596 H       
  24 H24           -1.9548    -2.6551     0.5046 H       
  25 H25           -1.9943    -0.1970     0.5223 H       
  26 H26           -1.9501     1.6365     0.3730 H       
  27 H27           -3.2784     3.7500    -0.1357 H       
  28 H28           -3.2205     6.2037     0.0412 H       
  29 H29            1.0175     6.0675     0.5723 H       
  30 H30            0.9607     3.6129     0.4062 H       
@<TRIPOS>BOND
   1    1    2 1
   2    1    8 2
   3    1    9 am
   4    2    3 ar
   5    2    7 ar
   6    3    4 ar
   7    3   23 1
   8    4    5 ar
   9    4   22 1
  10    5    6 ar
  11    5   10 1
  12    6    7 ar
  13    6   24 1
  14    7   25 1
  15    9   11 1
  16    9   26 1
  17   11   12 ar
  18   11   16 ar
  19   12   13 ar
  20   12   27 1
  21   13   14 ar
  22   13   28 1
  23   14   15 ar
  24   14   17 1
  25   15   16 ar
  26   15   29 1
  27   16   30 1
  28   17   18 1
  29   18   19 1
  30   18   20 1
  31   18   21 1

#	End of record

