#	Name: ASD06340049
#	Creating user name:	WinNT
#	Creation time:	15. 06. 2019 21:06

#	Modifying user name:	WinNT
#	Modification time:	15. 06. 2019 21:06

#	Program:	/corina/corina34_cracker 3.40 0067  02.08.2006

@<TRIPOS>MOLECULE
ASD06340049
  27   27    0    0    0
SMALL
NO_CHARGES


@<TRIPOS>ATOM
   1 N1            -0.0159     1.3206     0.0093 N.am    
   2 C2             0.0021    -0.0041     0.0020 C.2     
   3 N3             1.2079    -0.5931    -0.0127 N.am    
   4 S4             2.3479     0.6655    -0.0168 S.3     
   5 C5             1.1811     1.9312     0.0012 C.2     
   6 C6            -1.2703     2.0773     0.0195 C.3     
   7 C7             1.4848    -2.0317    -0.0226 C.3     
   8 C8             1.4439    -2.5490    -1.4619 C.3     
   9 O9            -1.0257    -0.6556     0.0087 O.2     
  10 O10            1.3957     3.1293     0.0049 O.2     
  11 C11           -1.7000     2.3329     1.4655 C.3     
  12 C12           -3.0101     3.1232     1.4761 C.3     
  13 C13           -3.4398     3.3787     2.9221 C.3     
  14 H14           -1.1242     3.0298    -0.4899 H       
  15 H15           -2.0436     1.5057    -0.4937 H       
  16 H16            2.4723    -2.2145     0.4012 H       
  17 H17            0.7327    -2.5506     0.5716 H       
  18 H18            1.6499    -3.6193    -1.4693 H       
  19 H19            0.4564    -2.3662    -1.8857 H       
  20 H20            2.1960    -2.0301    -2.0561 H       
  21 H21           -1.8461     1.3804     1.9748 H       
  22 H22           -0.9267     2.9045     1.9787 H       
  23 H23           -2.8640     4.0757     0.9667 H       
  24 H24           -3.7834     2.5516     0.9629 H       
  25 H25           -3.5859     2.4262     3.4315 H       
  26 H26           -2.6665     3.9503     3.4353 H       
  27 H27           -4.3731     3.9417     2.9296 H       
@<TRIPOS>BOND
   1    1    2 am
   2    1    5 am
   3    1    6 1
   4    2    3 am
   5    2    9 2
   6    3    4 1
   7    3    7 1
   8    4    5 1
   9    5   10 2
  10    6   11 1
  11    6   14 1
  12    6   15 1
  13    7    8 1
  14    7   16 1
  15    7   17 1
  16    8   18 1
  17    8   19 1
  18    8   20 1
  19   11   12 1
  20   11   21 1
  21   11   22 1
  22   12   13 1
  23   12   23 1
  24   12   24 1
  25   13   25 1
  26   13   26 1
  27   13   27 1

#	End of record

