#	Name: ASD04220009
#	Creating user name:	WinNT
#	Creation time:	15. 06. 2019 20:48

#	Modifying user name:	WinNT
#	Modification time:	15. 06. 2019 20:48

#	Program:	/corina/corina34_cracker 3.40 0067  02.08.2006

@<TRIPOS>MOLECULE
ASD04220009
  40   42    0    0    0
SMALL
NO_CHARGES


@<TRIPOS>ATOM
   1 C1            -0.0184     1.5028     0.0103 C.2     
   2 C2             0.0021    -0.0041     0.0020 C.3     
   3 O3             1.0236     2.1234     0.0037 O.2     
   4 C4             1.4295    -0.4870    -0.0142 C.ar    
   5 C5             2.1315    -0.6165     1.1752 C.ar    
   6 C6             3.4448    -1.0614     1.1604 C.ar    
   7 C7             4.0540    -1.3760    -0.0390 C.ar    
   8 C8             3.3521    -1.2470    -1.2281 C.ar    
   9 C9             2.0370    -0.8061    -1.2128 C.ar    
  10 O10            3.9518    -1.5567    -2.4086 O.3     
  11 O11            1.5318    -0.3068     2.3558 O.3     
  12 C12           -2.4721     1.4401     0.0216 C.3     
  13 N13           -1.1946     2.1607     0.0195 N.am    
  14 C14           -1.2493     3.6321     0.0282 C.3     
  15 C15           -1.9017     4.0848    -1.2770 C.3     
  16 C16           -3.1571     3.2984    -1.5503 C.ar    
  17 C17           -4.0757     3.8438    -2.4401 C.ar    
  18 C18           -5.2452     3.1730    -2.7439 C.ar    
  19 C19           -5.5049     1.9391    -2.1541 C.ar    
  20 C20           -4.5908     1.4011    -1.2673 C.ar    
  21 C21           -3.4190     2.0813    -0.9621 C.ar    
  22 O22           -6.6503     1.2675    -2.4480 O.3     
  23 O23           -6.1380     3.7159    -3.6143 O.3     
  24 H24           -0.4983    -0.3791     0.8948 H       
  25 H25           -0.5153    -0.3696    -0.8850 H       
  26 H26            3.9916    -1.1615     2.0863 H       
  27 H27            5.0770    -1.7221    -0.0507 H       
  28 H28            1.4890    -0.7095    -2.1384 H       
  29 H29            3.8436    -2.4801    -2.6743 H       
  30 H30            1.0765    -1.0511     2.7728 H       
  31 H31           -2.3031     0.4013    -0.2620 H       
  32 H32           -2.9073     1.4765     1.0203 H       
  33 H33           -1.8435     3.9741     0.8756 H       
  34 H34           -0.2402     4.0384     0.0965 H       
  35 H35           -2.1505     5.1436    -1.2050 H       
  36 H36           -1.2004     3.9372    -2.0983 H       
  37 H37           -3.8736     4.8009    -2.8979 H       
  38 H38           -4.7898     0.4442    -0.8079 H       
  39 H39           -6.5719     0.6673    -3.2021 H       
  40 H40           -5.9892     3.4670    -4.5367 H       
@<TRIPOS>BOND
   1    1    2 1
   2    1    3 2
   3    1   13 am
   4    2    4 1
   5    2   24 1
   6    2   25 1
   7    4    5 ar
   8    4    9 ar
   9    5    6 ar
  10    5   11 1
  11    6    7 ar
  12    6   26 1
  13    7    8 ar
  14    7   27 1
  15    8    9 ar
  16    8   10 1
  17    9   28 1
  18   10   29 1
  19   11   30 1
  20   12   13 1
  21   12   21 1
  22   12   31 1
  23   12   32 1
  24   13   14 1
  25   14   15 1
  26   14   33 1
  27   14   34 1
  28   15   16 1
  29   15   35 1
  30   15   36 1
  31   16   17 ar
  32   16   21 ar
  33   17   18 ar
  34   17   37 1
  35   18   19 ar
  36   18   23 1
  37   19   20 ar
  38   19   22 1
  39   20   21 ar
  40   20   38 1
  41   22   39 1
  42   23   40 1

#	End of record

