#	Name: ASD01410256
#	Creating user name:	WinNT
#	Creation time:	15. 06. 2019 19:17

#	Modifying user name:	WinNT
#	Modification time:	15. 06. 2019 19:17

#	Program:	/corina/corina34_cracker 3.40 0067  02.08.2006

@<TRIPOS>MOLECULE
ASD01410256
  31   32    0    0    0
SMALL
NO_CHARGES


@<TRIPOS>ATOM
   1 C1            -0.3317     1.5096    -0.6950 C.ar    
   2 C2            -0.0852     0.1614    -0.5310 C.ar    
   3 C3            -1.0467    -0.6646     0.0322 C.ar    
   4 C4            -2.2595    -0.1476     0.4344 C.ar    
   5 C5            -2.5237     1.2158     0.2753 C.ar    
   6 C6            -1.5470     2.0498    -0.2894 C.ar    
   7 N7            -1.7974     3.4072    -0.4531 N.pl3   
   8 Cl8            0.8795     2.5330    -1.4016 Cl      
   9 C9            -3.8187     1.7749     0.7033 C.2     
  10 N10           -4.7964     0.9549     1.1371 N.am    
  11 O11           -4.0049     2.9761     0.6651 O.2     
  12 C12           -7.1854     0.8197     1.4634 C.ar    
  13 C13           -5.9837     1.4907     1.6475 C.ar    
  14 C14           -5.9624     2.6948     2.3398 C.ar    
  15 C15           -7.1356     3.2212     2.8430 C.ar    
  16 C16           -8.3320     2.5503     2.6580 C.ar    
  17 C17           -8.3559     1.3505     1.9692 C.ar    
  18 Cl18          -0.7213    -2.3582     0.2310 Cl      
  19 Cl19          -9.8051     3.2150     3.2919 Cl      
  20 C20           -7.1133     4.5272     3.5946 C.3     
  21 H21            0.8620    -0.2530    -0.8433 H       
  22 H22           -3.0049    -0.7953     0.8716 H       
  23 H23           -2.7108     3.7278    -0.5159 H       
  24 H24           -1.0588     4.0339    -0.5044 H       
  25 H25           -4.6770    -0.0068     1.0953 H       
  26 H26           -7.2053    -0.1144     0.9216 H       
  27 H27           -5.0291     3.2185     2.4847 H       
  28 H28           -9.2908     0.8290     1.8263 H       
  29 H29           -7.2569     5.3512     2.8957 H       
  30 H30           -7.9138     4.5344     4.3343 H       
  31 H31           -6.1529     4.6406     4.0975 H       
@<TRIPOS>BOND
   1    1    2 ar
   2    1    8 1
   3    1    6 ar
   4    2    3 ar
   5    2   21 1
   6    3    4 ar
   7    3   18 1
   8    4    5 ar
   9    4   22 1
  10    5    6 ar
  11    5    9 1
  12    6    7 1
  13    7   23 1
  14    7   24 1
  15    9   10 am
  16    9   11 2
  17   10   13 1
  18   10   25 1
  19   12   13 ar
  20   12   17 ar
  21   12   26 1
  22   13   14 ar
  23   14   15 ar
  24   14   27 1
  25   15   16 ar
  26   15   20 1
  27   16   17 ar
  28   16   19 1
  29   17   28 1
  30   20   29 1
  31   20   30 1
  32   20   31 1

#	End of record

