#	Name: ASD02508347
#	Creating user name:	WinNT
#	Creation time:	15. 06. 2019 20:24

#	Modifying user name:	WinNT
#	Modification time:	15. 06. 2019 20:24

#	Program:	/corina/corina34_cracker 3.40 0067  02.08.2006

@<TRIPOS>MOLECULE
ASD02508347
  53   57    0    0    0
SMALL
NO_CHARGES


@<TRIPOS>ATOM
   1 C1            -0.6918     1.0175    -0.3347 C.ar    
   2 C2            -0.5819    -0.3596    -0.2241 C.ar    
   3 C3            -1.7444    -1.1252    -0.1084 C.ar    
   4 C4            -2.9805    -0.5156    -0.1049 C.ar    
   5 C5            -3.0791     0.8594    -0.2159 C.ar    
   6 C6            -1.9330     1.6244    -0.3260 C.ar    
   7 S7            -4.6614     1.6346    -0.2110 S.o2    
   8 O8            -4.4986     2.8831    -0.8698 O.2     
   9 O9            -5.5928     0.6483    -0.6340 O.2     
  10 C10           -5.0557     2.0047     1.4660 C.ar    
  11 C11           -4.6858     3.2203     2.0095 C.ar    
  12 C12           -4.9944     3.5140     3.3295 C.ar    
  13 C13           -5.6793     2.5841     4.1024 C.ar    
  14 C14           -6.0470     1.3656     3.5510 C.ar    
  15 C15           -5.7396     1.0807     2.2341 C.ar    
  16 O16           -4.6166     4.7120     3.8533 O.3     
  17 C17           -5.2685     5.1208     5.0607 C.3     
  18 C18           -5.2872     3.9270     6.0250 C.3     
  19 O19           -5.9991     2.8550     5.3974 O.3     
  20 S20            1.2583    -2.3460    -0.1377 S.o2    
  21 C21            1.3345    -2.7507     1.5755 C.ar    
  22 O22            2.5963    -2.3703    -0.6157 O.2     
  23 O23            0.2202    -3.1423    -0.6923 O.2     
  24 C24            0.6980     1.6035    -0.4449 C.3     
  25 C25            1.6358     0.3866    -0.3840 C.3     
  26 N26            0.7509    -0.7735    -0.2479 N.am    
  27 C27            0.7330    -1.9264     2.5077 C.ar    
  28 C28            0.7929    -2.2439     3.8520 C.ar    
  29 C29            1.4538    -3.3859     4.2635 C.ar    
  30 C30            2.0547    -4.2109     3.3310 C.ar    
  31 C31            1.9912    -3.8958     1.9867 C.ar    
  32 C32            2.6461    -4.7950     0.9702 C.3     
  33 F33            3.1391    -5.9385     1.6080 F       
  34 F34            1.7061    -5.1688     0.0038 F       
  35 F35            3.7012    -4.1127     0.3550 F       
  36 H36           -1.6743    -2.1995    -0.0217 H       
  37 H37           -3.8752    -1.1138    -0.0155 H       
  38 H38           -2.0083     2.6982    -0.4128 H       
  39 H39           -4.1557     3.9421     1.4059 H       
  40 H40           -6.5772     0.6403     4.1503 H       
  41 H41           -6.0267     0.1314     1.8067 H       
  42 H42           -4.7216     5.9489     5.5115 H       
  43 H43           -6.2899     5.4310     4.8400 H       
  44 H44           -4.2660     3.6133     6.2414 H       
  45 H45           -5.7894     4.2097     6.9502 H       
  46 H46            0.8158     2.1274    -1.3934 H       
  47 H47            0.8940     2.2769     0.3895 H       
  48 H48            2.2186     0.3120    -1.3021 H       
  49 H49            2.2968     0.4615     0.4795 H       
  50 H50            0.2166    -1.0341     2.1861 H       
  51 H51            0.3235    -1.5994     4.5805 H       
  52 H52            1.5012    -3.6335     5.3137 H       
  53 H53            2.5714    -5.1030     3.6526 H       
@<TRIPOS>BOND
   1    1    2 ar
   2    1   24 1
   3    1    6 ar
   4    2    3 ar
   5    2   26 1
   6    3    4 ar
   7    3   36 1
   8    4    5 ar
   9    4   37 1
  10    5    6 ar
  11    5    7 1
  12    6   38 1
  13    7    8 2
  14    7    9 2
  15    7   10 1
  16   10   11 ar
  17   10   15 ar
  18   11   12 ar
  19   11   39 1
  20   12   13 ar
  21   12   16 1
  22   13   14 ar
  23   13   19 1
  24   14   15 ar
  25   14   40 1
  26   15   41 1
  27   16   17 1
  28   17   18 1
  29   17   42 1
  30   17   43 1
  31   18   19 1
  32   18   44 1
  33   18   45 1
  34   20   21 1
  35   20   22 2
  36   20   23 2
  37   20   26 am
  38   21   27 ar
  39   21   31 ar
  40   24   25 1
  41   24   46 1
  42   24   47 1
  43   25   26 1
  44   25   48 1
  45   25   49 1
  46   27   28 ar
  47   27   50 1
  48   28   29 ar
  49   28   51 1
  50   29   30 ar
  51   29   52 1
  52   30   31 ar
  53   30   53 1
  54   31   32 1
  55   32   33 1
  56   32   34 1
  57   32   35 1

#	End of record

