#	Name: ASD01884988
#	Creating user name:	WinNT
#	Creation time:	15. 06. 2019 19:49

#	Modifying user name:	WinNT
#	Modification time:	15. 06. 2019 19:49

#	Program:	/corina/corina34_cracker 3.40 0067  02.08.2006

@<TRIPOS>MOLECULE
ASD01884988
  48   52    0    0    0
SMALL
NO_CHARGES


@<TRIPOS>ATOM
   1 C1            -0.0179     1.3747    -0.0305 C.ar    
   2 C2             0.0009    -0.0038    -0.0381 C.ar    
   3 C3            -1.1979    -0.7168     0.0101 C.ar    
   4 C4            -2.4120    -0.0324     0.0660 C.ar    
   5 C5            -2.4257     1.3461     0.0734 C.ar    
   6 C6            -1.2307     2.0546     0.0307 C.ar    
   7 C7            -1.1809    -2.1979     0.0015 C.2     
   8 C8            -1.6298    -2.9075     1.0998 C.2     
   9 C9            -0.7101    -2.9012    -1.1342 C.2     
  10 C10           -0.6964    -4.2471    -1.1402 C.2     
  11 N11           -1.1330    -4.9559    -0.0581 N.pl3   
  12 C12           -1.6018    -4.3118     1.0615 C.2     
  13 C13           -1.2318    -6.2874     0.2107 C.2     
  14 N14           -1.7238    -6.4105     1.4163 N.2     
  15 N15           -1.9470    -5.2515     1.9285 N.2     
  16 C16           -0.8455    -7.4137    -0.7130 C.3     
  17 N17           -1.2475     3.4502     0.0388 N.3     
  18 Cl18           1.4725     2.2629    -0.0899 Cl      
  19 C19            0.2352    -8.3835    -0.2310 C.3     
  20 C20           -1.2255    -8.8346    -0.2919 C.3     
  21 C21           -0.6669     3.9766     1.2820 C.3     
  22 C22           -2.6107     3.9617    -0.1604 C.3     
  23 C23           -2.5748     5.4904    -0.2246 C.3     
  24 N24           -1.9942     6.0168     1.0186 N.3     
  25 C25           -0.6310     5.5054     1.2178 C.3     
  26 C26           -2.1411    -2.1857     2.3199 C.3     
  27 F27           -3.5336    -2.0733     2.2459 F       
  28 F28           -1.7916    -2.9050     3.4678 F       
  29 F29           -1.5727    -0.9087     2.3786 F       
  30 H30            0.9422    -0.5315    -0.0818 H       
  31 H31           -3.3409    -0.5821     0.1030 H       
  32 H32           -3.3658     1.8760     0.1163 H       
  33 H33           -0.3613    -2.3556    -1.9985 H       
  34 H34           -0.3360    -4.7729    -2.0120 H       
  35 H35           -0.8732    -7.1794    -1.7772 H       
  36 H36            0.9183    -8.7876    -0.9782 H       
  37 H37            0.6668    -8.2069     0.7542 H       
  38 H38           -1.7549    -8.9548     0.6533 H       
  39 H39           -1.5034    -9.5355    -1.0791 H       
  40 H40           -1.2762     3.6624     2.1294 H       
  41 H41            0.3467     3.5937     1.4007 H       
  42 H42           -3.0141     3.5679    -1.0932 H       
  43 H43           -3.2421     3.6474     0.6707 H       
  44 H44           -1.9655     5.8046    -1.0720 H       
  45 H45           -3.5884     5.8733    -0.3432 H       
  46 H46           -2.0064     7.0258     1.0245 H       
  47 H47           -0.2276     5.8991     2.1507 H       
  48 H48            0.0004     5.8197     0.3868 H       
@<TRIPOS>BOND
   1    1    2 ar
   2    1   18 1
   3    1    6 ar
   4    2    3 ar
   5    2   30 1
   6    3    4 ar
   7    3    7 1
   8    4    5 ar
   9    4   31 1
  10    5    6 ar
  11    5   32 1
  12    6   17 1
  13    7    8 2
  14    7    9 1
  15    8   26 1
  16    8   12 1
  17    9   10 2
  18    9   33 1
  19   10   11 1
  20   10   34 1
  21   11   12 1
  22   11   13 1
  23   12   15 2
  24   13   14 2
  25   13   16 1
  26   14   15 1
  27   16   19 1
  28   16   20 1
  29   16   35 1
  30   17   21 1
  31   17   22 1
  32   19   20 1
  33   19   36 1
  34   19   37 1
  35   20   38 1
  36   20   39 1
  37   21   25 1
  38   21   40 1
  39   21   41 1
  40   22   23 1
  41   22   42 1
  42   22   43 1
  43   23   24 1
  44   23   44 1
  45   23   45 1
  46   24   25 1
  47   24   46 1
  48   25   47 1
  49   25   48 1
  50   26   27 1
  51   26   28 1
  52   26   29 1

#	End of record

