#	Name: ASD03092222
#	Creating user name:	WinNT
#	Creation time:	15. 06. 2019 20:32

#	Modifying user name:	WinNT
#	Modification time:	15. 06. 2019 20:32

#	Program:	/corina/corina34_cracker 3.40 0067  02.08.2006

@<TRIPOS>MOLECULE
ASD03092222
  40   42    0    0    0
SMALL
NO_CHARGES


@<TRIPOS>ATOM
   1 C1             2.1618     1.2094    -1.0289 C.3     
   2 C2             1.7631    -0.2556    -0.8398 C.3     
   3 O3             2.1303    -0.6835     0.4733 O.3     
   4 C4             1.8461    -1.9609     0.8032 C.2     
   5 O5             1.3010    -2.6908    -0.0035 O.2     
   6 C6             2.1826    -2.4522     2.0894 C.2     
   7 S7             2.9635    -1.5393     3.3784 S.3     
   8 C8             2.9177    -2.9121     4.3956 C.2     
   9 N9             3.3986    -2.9493     5.6871 N.pl3   
  10 C10            3.8542    -1.7752     6.2985 C.ar    
  11 C11            3.2085    -0.5699     6.0559 C.ar    
  12 C12            3.6586     0.5878     6.6593 C.ar    
  13 C13            4.7557     0.5470     7.5073 C.ar    
  14 O14            5.1983     1.6875     8.1011 O.3     
  15 C15            6.3329     1.5723     8.9622 C.3     
  16 C16            5.4012    -0.6565     7.7502 C.ar    
  17 C17            4.9486    -1.8162     7.1524 C.ar    
  18 N18            2.3644    -3.9183     3.7800 N.2     
  19 C19            1.9538    -3.7189     2.5544 C.2     
  20 C20            1.2916    -4.7898     1.7264 C.3     
  21 C21            1.2783    -6.2119     2.2905 C.3     
  22 C22           -0.0115    -5.3896     2.2585 C.3     
  23 H23            3.2395     1.3120    -0.9014 H       
  24 H24            1.8817     1.5358    -2.0304 H       
  25 H25            1.6483     1.8240    -0.2895 H       
  26 H26            0.6854    -0.3582    -0.9672 H       
  27 H27            2.2765    -0.8703    -1.5791 H       
  28 H28            3.4212    -3.7890     6.1722 H       
  29 H29            2.3548    -0.5378     5.3952 H       
  30 H30            3.1566     1.5252     6.4708 H       
  31 H31            6.5810     2.5525     9.3693 H       
  32 H32            6.1016     0.8879     9.7784 H       
  33 H33            7.1815     1.1887     8.3957 H       
  34 H34            6.2555    -0.6873     8.4102 H       
  35 H35            5.4487    -2.7539     7.3451 H       
  36 H36            1.3897    -4.6772     0.6466 H       
  37 H37            1.3680    -7.0353     1.5819 H       
  38 H38            1.7486    -6.3729     3.2606 H       
  39 H39           -0.3898    -5.0096     3.2075 H       
  40 H40           -0.7704    -5.6720     1.5289 H       
@<TRIPOS>BOND
   1    1    2 1
   2    1   23 1
   3    1   24 1
   4    1   25 1
   5    2    3 1
   6    2   26 1
   7    2   27 1
   8    3    4 1
   9    4    5 2
  10    4    6 1
  11    6   19 2
  12    6    7 1
  13    7    8 1
  14    8    9 1
  15    8   18 2
  16    9   10 1
  17    9   28 1
  18   10   17 ar
  19   10   11 ar
  20   11   12 ar
  21   11   29 1
  22   12   13 ar
  23   12   30 1
  24   13   14 1
  25   13   16 ar
  26   14   15 1
  27   15   31 1
  28   15   32 1
  29   15   33 1
  30   16   17 ar
  31   16   34 1
  32   17   35 1
  33   18   19 1
  34   19   20 1
  35   20   22 1
  36   20   21 1
  37   20   36 1
  38   21   22 1
  39   21   37 1
  40   21   38 1
  41   22   39 1
  42   22   40 1

#	End of record

