#	Name: ASD07930338
#	Creating user name:	WinNT
#	Creation time:	15. 06. 2019 21:12

#	Modifying user name:	WinNT
#	Modification time:	15. 06. 2019 21:12

#	Program:	/corina/corina34_cracker 3.40 0067  02.08.2006

@<TRIPOS>MOLECULE
ASD07930338
  47   48    0    0    0
SMALL
NO_CHARGES


@<TRIPOS>ATOM
   1 N1            -1.3261     1.9307    -0.3582 N.pl3   
   2 C2            -0.6729     0.6183    -0.3111 C.3     
   3 C3             0.5234     0.6846     0.6490 C.3     
   4 S4             1.6202     2.0295     0.0980 S.o2    
   5 N5             0.5652     3.3041    -0.0997 N.am    
   6 C6            -0.6174     3.0337    -0.7496 C.2     
   7 C7            -1.6544    -0.4154     0.1779 C.2     
   8 C8            -2.1713    -0.4643     1.4066 C.2     
   9 C9             0.8809     4.6466     0.3946 C.3     
  10 O10            2.4834     2.4394     1.1498 O.2     
  11 O11            2.1182     1.7715    -1.2076 O.2     
  12 C12           -0.1847     0.2397    -1.7108 C.3     
  13 S13           -2.2992    -1.7375    -0.7863 S.3     
  14 C14           -3.2569    -2.3036     0.5760 C.2     
  15 C15           -3.0547    -1.5071     1.6266 C.2     
  16 N16           -1.0559     3.8169    -1.7229 N.2     
  17 O17           -2.5270     4.2124    -3.4831 O.3     
  18 C18           -3.6896     3.7782    -4.1915 C.3     
  19 C19           -4.8872     3.7534    -3.2396 C.3     
  20 C20           -3.9744     4.7431    -5.3443 C.3     
  21 C21           -3.4521     2.3734    -4.7491 C.3     
  22 C22           -2.1370     3.4652    -2.4292 C.2     
  23 O23           -2.7686     2.4712    -2.1209 O.2     
  24 C24           -1.8199     0.5394     2.4744 C.3     
  25 F25           -2.8421     0.5823     3.4286 F       
  26 F26           -0.6217     0.1638     3.0912 F       
  27 F27           -1.6698     1.8037     1.8947 F       
  28 H28           -2.2615     2.0159    -0.1159 H       
  29 H29            0.1723     0.8875     1.6607 H       
  30 H30            1.0636    -0.2619     0.6294 H       
  31 H31            1.4019     5.2065    -0.3820 H       
  32 H32           -0.0421     5.1632     0.6578 H       
  33 H33            1.5178     4.5689     1.2758 H       
  34 H34            0.4148     1.0534    -2.1190 H       
  35 H35            0.4216    -0.6642    -1.6520 H       
  36 H36           -1.0427     0.0602    -2.3587 H       
  37 H37           -3.9113    -3.1626     0.5627 H       
  38 H38           -3.5417    -1.6650     2.5775 H       
  39 H39           -5.0564     4.7543    -2.8424 H       
  40 H40           -5.7740     3.4222    -3.7800 H       
  41 H41           -4.6843     3.0661    -2.4183 H       
  42 H42           -3.1212     4.7607    -6.0225 H       
  43 H43           -4.8612     4.4119    -5.8847 H       
  44 H44           -4.1436     5.7439    -4.9471 H       
  45 H45           -3.2492     1.6860    -3.9278 H       
  46 H46           -4.3389     2.0422    -5.2894 H       
  47 H47           -2.5989     2.3911    -5.4272 H       
@<TRIPOS>BOND
   1    1    2 1
   2    1    6 1
   3    1   28 1
   4    2    3 1
   5    2    7 1
   6    2   12 1
   7    3    4 1
   8    3   29 1
   9    3   30 1
  10    4    5 am
  11    4   10 2
  12    4   11 2
  13    5    6 1
  14    5    9 1
  15    6   16 2
  16    7   13 1
  17    7    8 2
  18    8   24 1
  19    8   15 1
  20    9   31 1
  21    9   32 1
  22    9   33 1
  23   12   34 1
  24   12   35 1
  25   12   36 1
  26   13   14 1
  27   14   15 2
  28   14   37 1
  29   15   38 1
  30   16   22 1
  31   17   18 1
  32   17   22 1
  33   18   19 1
  34   18   20 1
  35   18   21 1
  36   19   39 1
  37   19   40 1
  38   19   41 1
  39   20   42 1
  40   20   43 1
  41   20   44 1
  42   21   45 1
  43   21   46 1
  44   21   47 1
  45   22   23 2
  46   24   25 1
  47   24   26 1
  48   24   27 1

#	End of record

