#	Name: ASD01150043
#	Creating user name:	WinNT
#	Creation time:	15. 06. 2019 19:03

#	Modifying user name:	WinNT
#	Modification time:	15. 06. 2019 19:03

#	Program:	/corina/corina34_cracker 3.40 0067  02.08.2006

@<TRIPOS>MOLECULE
ASD01150043
  46   49    0    0    0
SMALL
NO_CHARGES


@<TRIPOS>ATOM
   1 C1            -0.0159     1.3192     0.0093 C.ar    
   2 N2             0.0021    -0.0041     0.0020 N.ar    
   3 C3            -1.1222    -0.7028     0.0090 C.ar    
   4 C4            -2.3398    -0.0270     0.0243 C.ar    
   5 C5            -2.3197     1.3803     0.0316 C.ar    
   6 N6            -1.1475     2.0046     0.0292 N.ar    
   7 C7            -3.6230    -0.7701     0.0320 C.ar    
   8 C8            -3.8487    -1.7860    -0.8952 C.ar    
   9 C9            -5.0449    -2.4742    -0.8833 C.ar    
  10 C10           -6.0189    -2.1575     0.0465 C.ar    
  11 C11           -5.8004    -1.1503     0.9691 C.ar    
  12 C12           -4.6058    -0.4592     0.9703 C.ar    
  13 C13           -7.3231    -2.9124     0.0540 C.3     
  14 F14           -7.2128    -4.0256     0.8943 F       
  15 F15           -8.3433    -2.0760     0.5196 F       
  16 F16           -7.6240    -3.3365    -1.2447 F       
  17 N17           -3.5005     2.1008     0.0468 N.pl3   
  18 C18           -3.4649     3.5653     0.0543 C.3     
  19 C19           -3.3485     4.0941     1.5022 C.3     
  20 C20           -4.6387     4.9430     1.7168 C.3     
  21 C21           -4.4316     6.2015     0.8197 C.3     
  22 C22           -4.5481     5.6727    -0.6282 C.3     
  23 C23           -4.8145     4.1446    -0.4695 C.3     
  24 C24           -5.6660     4.1339     0.8489 C.3     
  25 O25            1.1595     1.9920     0.0017 O.3     
  26 C26            2.3550     1.2093    -0.0139 C.3     
  27 H27           -1.0956    -1.7824     0.0026 H       
  28 H28           -3.0891    -2.0339    -1.6219 H       
  29 H29           -5.2210    -3.2614    -1.6015 H       
  30 H30           -6.5644    -0.9073     1.6928 H       
  31 H31           -4.4363     0.3270     1.6911 H       
  32 H32           -4.3520     1.6363     0.0524 H       
  33 H33           -2.6337     3.9276    -0.5506 H       
  34 H34           -3.3177     3.2644     2.2084 H       
  35 H35           -2.4610     4.7180     1.6086 H       
  36 H36           -4.9145     5.1370     2.7533 H       
  37 H37           -5.2075     6.9411     1.0177 H       
  38 H38           -3.4441     6.6307     0.9892 H       
  39 H39           -5.3812     6.1523    -1.1420 H       
  40 H40           -3.6179     5.8419    -1.1705 H       
  41 H41           -5.2436     3.6431    -1.3371 H       
  42 H42           -5.8169     3.1239     1.2299 H       
  43 H43           -6.6097     4.6663     0.7304 H       
  44 H44            2.3690     0.5852    -0.9075 H       
  45 H45            3.2219     1.8701    -0.0187 H       
  46 H46            2.3860     0.5757     0.8724 H       
@<TRIPOS>BOND
   1    1    2 ar
   2    1   25 1
   3    1    6 ar
   4    2    3 ar
   5    3    4 ar
   6    3   27 1
   7    4    5 ar
   8    4    7 1
   9    5    6 ar
  10    5   17 1
  11    7    8 ar
  12    7   12 ar
  13    8    9 ar
  14    8   28 1
  15    9   10 ar
  16    9   29 1
  17   10   11 ar
  18   10   13 1
  19   11   12 ar
  20   11   30 1
  21   12   31 1
  22   13   14 1
  23   13   15 1
  24   13   16 1
  25   17   18 1
  26   17   32 1
  27   18   19 1
  28   18   23 1
  29   18   33 1
  30   19   20 1
  31   19   34 1
  32   19   35 1
  33   20   21 1
  34   20   24 1
  35   20   36 1
  36   21   22 1
  37   21   37 1
  38   21   38 1
  39   22   23 1
  40   22   39 1
  41   22   40 1
  42   23   24 1
  43   23   41 1
  44   24   42 1
  45   24   43 1
  46   25   26 1
  47   26   44 1
  48   26   45 1
  49   26   46 1

#	End of record

