#	Name: ASD04882245
#	Creating user name:	WinNT
#	Creation time:	15. 06. 2019 20:54

#	Modifying user name:	WinNT
#	Modification time:	15. 06. 2019 20:54

#	Program:	/corina/corina34_cracker 3.40 0067  02.08.2006

@<TRIPOS>MOLECULE
ASD04882245
  77   82    0    0    0
SMALL
NO_CHARGES


@<TRIPOS>ATOM
   1 N1            -0.1362     1.5550    -0.0364 N.am    
   2 C2            -0.0763     0.1554    -0.0458 C.ar    
   3 C3            -1.2526    -0.5956     0.0296 C.ar    
   4 C4            -1.1946    -1.9845     0.0209 C.ar    
   5 C5             0.0215    -2.6255    -0.0625 C.ar    
   6 C6             1.2018    -1.8806    -0.1381 C.ar    
   7 C7             1.1458    -0.4840    -0.1353 C.ar    
   8 N8            -2.4844     0.0484     0.1140 N.3     
   9 C9            -2.6117     0.7772     1.3837 C.3     
  10 C10           -3.5898    -0.9050    -0.0559 C.3     
  11 C11           -4.9200    -0.1483    -0.0362 C.3     
  12 N12           -5.0474     0.5805     1.2335 N.3     
  13 C13           -3.9420     1.5339     1.4033 C.3     
  14 C14            2.5043    -2.5675    -0.2269 C.2     
  15 O15            3.5306    -1.9186    -0.2927 O.2     
  16 C16            0.8455     2.2676     0.5510 C.2     
  17 O17            1.7295     1.6967     1.1625 O.2     
  18 C18            0.8484     3.7307     0.4533 C.2     
  19 N19            2.5568    -3.9142    -0.2351 N.am    
  20 C20           -6.2829     1.2264     1.3182 C.ar    
  21 C21           -6.6349     2.1820     0.3737 C.ar    
  22 C22           -7.1649     0.9104     2.3440 C.ar    
  23 C23           -8.3855     1.5508     2.4248 C.ar    
  24 C24           -8.7307     2.5057     1.4857 C.ar    
  25 C25           -7.8575     2.8188     0.4604 C.ar    
  26 C26           -6.7901    -0.1306     3.3672 C.3     
  27 C27            3.8503    -4.5963    -0.3233 C.3     
  28 C28            3.6335    -6.0876    -0.3142 C.ar    
  29 O29           -0.0671     4.4841    -0.1904 O.3     
  30 C30            1.7751     4.5697     1.0030 C.2     
  31 C31            1.3897     5.8756     0.6618 C.2     
  32 C32            0.2571     5.7780    -0.0687 C.2     
  33 C33            3.4548    -6.7667    -1.5061 C.ar    
  34 C34            3.2558    -8.1352    -1.5050 C.ar    
  35 C35            3.2344    -8.8312    -0.3130 C.ar    
  36 C36            3.4138    -8.1524     0.8901 C.ar    
  37 C37            3.6192    -6.7742     0.8828 C.ar    
  38 C38            3.3914    -8.8953     2.1749 C.2     
  39 N39            3.4548    -8.3643     3.3776 N.2     
  40 C40            3.2924   -10.2924     2.3225 C.2     
  41 C41            3.3050   -10.5710     3.6443 C.2     
  42 N42            3.4042    -9.4035     4.3154 N.pl3   
  43 C43            3.4505    -9.2502     5.7717 C.3     
  44 H44           -0.8822     2.0114    -0.4562 H       
  45 H45           -2.1052    -2.5622     0.0800 H       
  46 H46            0.0633    -3.7047    -0.0690 H       
  47 H47            2.0561     0.0942    -0.1940 H       
  48 H48           -2.5831     0.0706     2.2131 H       
  49 H49           -1.7890     1.4856     1.4805 H       
  50 H50           -3.4801    -1.4230    -1.0086 H       
  51 H51           -3.5722    -1.6308     0.7572 H       
  52 H52           -4.9487     0.5583    -0.8656 H       
  53 H53           -5.7428    -0.8567    -0.1330 H       
  54 H54           -4.0517     2.0519     2.3561 H       
  55 H55           -3.9596     2.2596     0.5903 H       
  56 H56            1.7382    -4.4318    -0.1827 H       
  57 H57           -5.9533     2.4270    -0.4274 H       
  58 H58           -9.0716     1.3056     3.2220 H       
  59 H59           -9.6863     3.0046     1.5507 H       
  60 H60           -8.1301     3.5650    -0.2713 H       
  61 H61           -6.2775     0.3481     4.2016 H       
  62 H62           -7.6914    -0.6248     3.7298 H       
  63 H63           -6.1301    -0.8681     2.9103 H       
  64 H64            4.3511    -4.3076    -1.2475 H       
  65 H65            4.4689    -4.3139     0.5286 H       
  66 H66            2.6372     4.2839     1.5873 H       
  67 H67            1.9006     6.7872     0.9346 H       
  68 H68           -0.2954     6.6067    -0.4863 H       
  69 H69            3.4704    -6.2260    -2.4409 H       
  70 H70            3.1164    -8.6604    -2.4384 H       
  71 H71            3.0786    -9.8999    -0.3133 H       
  72 H72            3.7592    -6.2432     1.8128 H       
  73 H73            3.2190   -11.0130     1.5214 H       
  74 H74            3.2433   -11.5544     4.0865 H       
  75 H75            4.4867    -9.2850     6.1079 H       
  76 H76            3.0100    -8.2929     6.0504 H       
  77 H77            2.8891   -10.0586     6.2401 H       
@<TRIPOS>BOND
   1    1    2 1
   2    1   16 am
   3    1   44 1
   4    2    3 ar
   5    2    7 ar
   6    3    4 ar
   7    3    8 1
   8    4    5 ar
   9    4   45 1
  10    5    6 ar
  11    5   46 1
  12    6    7 ar
  13    6   14 1
  14    7   47 1
  15    8    9 1
  16    8   10 1
  17    9   13 1
  18    9   48 1
  19    9   49 1
  20   10   11 1
  21   10   50 1
  22   10   51 1
  23   11   12 1
  24   11   52 1
  25   11   53 1
  26   12   13 1
  27   12   20 1
  28   13   54 1
  29   13   55 1
  30   14   15 2
  31   14   19 am
  32   16   17 2
  33   16   18 1
  34   18   29 1
  35   18   30 2
  36   19   27 1
  37   19   56 1
  38   20   21 ar
  39   20   22 ar
  40   21   25 ar
  41   21   57 1
  42   22   23 ar
  43   22   26 1
  44   23   24 ar
  45   23   58 1
  46   24   25 ar
  47   24   59 1
  48   25   60 1
  49   26   61 1
  50   26   62 1
  51   26   63 1
  52   27   28 1
  53   27   64 1
  54   27   65 1
  55   28   33 ar
  56   28   37 ar
  57   29   32 1
  58   30   31 1
  59   30   66 1
  60   31   32 2
  61   31   67 1
  62   32   68 1
  63   33   34 ar
  64   33   69 1
  65   34   35 ar
  66   34   70 1
  67   35   36 ar
  68   35   71 1
  69   36   37 ar
  70   36   38 1
  71   37   72 1
  72   38   39 2
  73   38   40 1
  74   39   42 1
  75   40   41 2
  76   40   73 1
  77   41   42 1
  78   41   74 1
  79   42   43 1
  80   43   75 1
  81   43   76 1
  82   43   77 1

#	End of record

