#	Name: ASD00311160
#	Creating user name:	WinNT
#	Creation time:	15. 06. 2019 18:34

#	Modifying user name:	WinNT
#	Modification time:	15. 06. 2019 18:34

#	Program:	/corina/corina34_cracker 3.40 0067  02.08.2006

@<TRIPOS>MOLECULE
ASD00311160
  39   42    0    0    0
SMALL
NO_CHARGES


@<TRIPOS>ATOM
   1 C1            -0.0167     1.3773     0.0096 C.2     
   2 C2             0.0021    -0.0041     0.0020 C.2     
   3 C3             1.2589    -0.6767    -0.0131 C.2     
   4 C4             2.4313     0.0668    -0.0199 C.2     
   5 C5             2.3575     1.4744    -0.0117 C.2     
   6 N6             1.1651     2.0898     0.0022 N.am    
   7 C7            -1.3434    -0.5755     0.0118 C.2     
   8 C8            -2.3233     0.3266     0.0260 C.2     
   9 S9            -1.6790     1.9564     0.0358 S.3     
  10 O10            3.3827     2.1363    -0.0171 O.2     
  11 C11           -1.5959    -2.0355     0.0056 C.ar    
  12 C12           -2.2068    -2.6449     1.1011 C.ar    
  13 C13           -2.4393    -4.0050     1.0895 C.ar    
  14 C14           -2.0673    -4.7639    -0.0058 C.ar    
  15 C15           -1.4605    -4.1650    -1.0954 C.ar    
  16 C16           -1.2289    -2.8047    -1.0982 C.ar    
  17 C17            4.1334    -1.3826    -1.1306 C.ar    
  18 C18            3.7479    -0.6130    -0.0352 C.ar    
  19 C19            4.6227    -0.4911     1.0504 C.ar    
  20 C20            5.8397    -1.1433     0.9897 C.ar    
  21 C21            6.1528    -1.8927    -0.1376 C.ar    
  22 N22            5.3040    -1.9883    -1.1477 N.ar    
  23 O23            7.3465    -2.5352    -0.2036 O.3     
  24 C24            7.6123    -3.2901    -1.3875 C.3     
  25 O25            1.3087    -2.0295    -0.0204 O.3     
  26 Cl26          -4.0154    -0.0610     0.0395 Cl      
  27 H27            1.1331     3.0592     0.0077 H       
  28 H28           -2.4969    -2.0537     1.9570 H       
  29 H29           -2.9123    -4.4782     1.9373 H       
  30 H30           -2.2510    -5.8281    -0.0102 H       
  31 H31           -1.1720    -4.7626    -1.9475 H       
  32 H32           -0.7598    -2.3375    -1.9515 H       
  33 H33            3.4647    -1.4876    -1.9722 H       
  34 H34            4.3535     0.0985     1.9143 H       
  35 H35            6.5395    -1.0710     1.8091 H       
  36 H36            6.8553    -4.0661    -1.5012 H       
  37 H37            7.5875    -2.6286    -2.2534 H       
  38 H38            8.5969    -3.7515    -1.3108 H       
  39 H39            2.2059    -2.3900    -0.0307 H       
@<TRIPOS>BOND
   1    1    2 2
   2    1    6 1
   3    1    9 1
   4    2    3 1
   5    2    7 1
   6    3    4 2
   7    3   25 1
   8    4    5 1
   9    4   18 1
  10    5    6 am
  11    5   10 2
  12    6   27 1
  13    7    8 2
  14    7   11 1
  15    8    9 1
  16    8   26 1
  17   11   12 ar
  18   11   16 ar
  19   12   13 ar
  20   12   28 1
  21   13   14 ar
  22   13   29 1
  23   14   15 ar
  24   14   30 1
  25   15   16 ar
  26   15   31 1
  27   16   32 1
  28   17   18 ar
  29   17   22 ar
  30   17   33 1
  31   18   19 ar
  32   19   20 ar
  33   19   34 1
  34   20   21 ar
  35   20   35 1
  36   21   22 ar
  37   21   23 1
  38   23   24 1
  39   24   36 1
  40   24   37 1
  41   24   38 1
  42   25   39 1

#	End of record

