#	Name: ASD01812582
#	Creating user name:	WinNT
#	Creation time:	15. 06. 2019 19:28

#	Modifying user name:	WinNT
#	Modification time:	15. 06. 2019 19:28

#	Program:	/corina/corina34_cracker 3.40 0067  02.08.2006

@<TRIPOS>MOLECULE
ASD01812582
  72   77    0    0    0
SMALL
NO_CHARGES


@<TRIPOS>ATOM
   1 C1             7.8505     6.4268   -12.3192 C.3     
   2 O2             8.5983     5.2816   -12.7332 O.3     
   3 C3             8.0741     4.0649   -12.4404 C.ar    
   4 C4             8.7572     2.9143   -12.8120 C.ar    
   5 C5             8.2116     1.6791   -12.5073 C.ar    
   6 C6             6.9962     1.6392   -11.8386 C.ar    
   7 C7             6.3723     2.8236   -11.4998 C.ar    
   8 N8             6.9199     3.9860   -11.7990 N.ar    
   9 C9             5.0523     2.7880   -10.7735 C.3     
  10 C10            5.1213     1.7647    -9.6366 C.3     
  11 C11            3.7996     1.7767    -8.8652 C.3     
  12 N12            3.5593     3.1206    -8.3242 N.3     
  13 C13            2.3700     3.1361    -7.4620 C.3     
  14 C14            2.0947     4.5475    -7.0113 C.ar    
  15 C15            1.0651     5.2426    -7.5563 C.ar    
  16 C16            0.7884     6.5633    -7.1517 C.ar    
  17 C17           -0.2495     7.5242    -7.5745 C.2     
  18 O18           -1.1011     7.3021    -8.4131 O.2     
  19 N19           -0.1187     8.6794    -6.9001 N.am    
  20 C20            1.0200     8.5570    -5.9828 C.3     
  21 C21            1.5736     7.1688    -6.1834 C.ar    
  22 C22            2.6405     6.4699    -5.6082 C.ar    
  23 C23            3.4546     7.0576    -4.6237 C.ar    
  24 C24            4.4836     6.3464    -4.0870 C.ar    
  25 C25            4.7446     5.0413    -4.4989 C.ar    
  26 C26            3.9777     4.4394    -5.4498 C.ar    
  27 C27            2.9029     5.1380    -6.0225 C.ar    
  28 C28           -0.9693     9.8620    -7.0555 C.3     
  29 H29           -0.6274    10.6467    -6.3806 H       
  30 C30           -0.8902    10.3611    -8.4996 C.3     
  31 C31           -1.7785    11.5961    -8.6618 C.3     
  32 C32           -3.2260    11.2307    -8.3272 C.3     
  33 C33           -3.3052    10.7317    -6.8830 C.3     
  34 C34           -2.4169     9.4966    -6.7208 C.3     
  35 H35           -2.7588     8.7119    -7.3956 H       
  36 O36           -2.4908     9.0305    -5.3720 O.3     
  37 C37            3.4421     4.1129    -9.4003 C.3     
  38 C38            4.7531     4.1707   -10.1877 C.3     
  39 C39            3.9840     2.4101   -11.7130 C.1     
  40 N40            3.1595     2.1185   -12.4381 N.1     
  41 H41            6.8684     6.4097   -12.7916 H       
  42 H42            7.7329     6.4117   -11.2357 H       
  43 H43            8.3800     7.3327   -12.6146 H       
  44 H44            9.7013     2.9822   -13.3320 H       
  45 H45            8.7200     0.7673   -12.7841 H       
  46 H46            6.5429     0.6919   -11.5862 H       
  47 H47            5.2917     0.7711   -10.0511 H       
  48 H48            5.9382     2.0236    -8.9630 H       
  49 H49            2.9850     1.5042    -9.5362 H       
  50 H50            3.8506     1.0593    -8.0461 H       
  51 H51            1.5124     2.7588    -8.0191 H       
  52 H52            2.5443     2.5040    -6.5913 H       
  53 H53            0.4490     4.7770    -8.3114 H       
  54 H54            1.7783     9.3016    -6.2251 H       
  55 H55            0.6866     8.6824    -4.9526 H       
  56 H56            3.2645     8.0687    -4.2952 H       
  57 H57            5.1071     6.8006    -3.3311 H       
  58 H58            5.5677     4.4989    -4.0577 H       
  59 H59            4.1927     3.4271    -5.7589 H       
  60 H60            0.1411    10.6214    -8.7381 H       
  61 H61           -1.2321     9.5764    -9.1745 H       
  62 H62           -1.4365    12.3808    -7.9870 H       
  63 H63           -1.7221    11.9517    -9.6907 H       
  64 H64           -3.8589    12.1106    -8.4427 H       
  65 H65           -3.5680    10.4460    -9.0020 H       
  66 H66           -2.9632    11.5164    -6.2082 H       
  67 H67           -4.3365    10.4713    -6.6446 H       
  68 H68           -3.3815     8.7803    -5.0906 H       
  69 H69            2.6292     3.8295   -10.0688 H       
  70 H70            3.2335     5.0924    -8.9699 H       
  71 H71            5.5642     4.4675    -9.5228 H       
  72 H72            4.6605     4.8961   -10.9960 H       
@<TRIPOS>BOND
   1    1    2 1
   2    1   41 1
   3    1   42 1
   4    1   43 1
   5    2    3 1
   6    3    8 ar
   7    3    4 ar
   8    4    5 ar
   9    4   44 1
  10    5    6 ar
  11    5   45 1
  12    6    7 ar
  13    6   46 1
  14    7    8 ar
  15    7    9 1
  16    9   38 1
  17    9   10 1
  18    9   39 1
  19   10   11 1
  20   10   47 1
  21   10   48 1
  22   11   12 1
  23   11   49 1
  24   11   50 1
  25   12   13 1
  26   12   37 1
  27   13   14 1
  28   13   51 1
  29   13   52 1
  30   14   27 ar
  31   14   15 ar
  32   15   16 ar
  33   15   53 1
  34   16   21 ar
  35   16   17 1
  36   17   18 2
  37   17   19 am
  38   19   20 1
  39   19   28 1
  40   20   21 1
  41   20   54 1
  42   20   55 1
  43   21   22 ar
  44   22   27 ar
  45   22   23 ar
  46   23   24 ar
  47   23   56 1
  48   24   25 ar
  49   24   57 1
  50   25   26 ar
  51   25   58 1
  52   26   27 ar
  53   26   59 1
  54   28   29 1
  55   28   34 1
  56   28   30 1
  57   30   31 1
  58   30   60 1
  59   30   61 1
  60   31   32 1
  61   31   62 1
  62   31   63 1
  63   32   33 1
  64   32   64 1
  65   32   65 1
  66   33   34 1
  67   33   66 1
  68   33   67 1
  69   34   35 1
  70   34   36 1
  71   36   68 1
  72   37   38 1
  73   37   69 1
  74   37   70 1
  75   38   71 1
  76   38   72 1
  77   39   40 3

#	End of record

