#	Name: ASD01180274
#	Creating user name:	WinNT
#	Creation time:	15. 06. 2019 19:07

#	Modifying user name:	WinNT
#	Modification time:	15. 06. 2019 19:07

#	Program:	/corina/corina34_cracker 3.40 0067  02.08.2006

@<TRIPOS>MOLECULE
ASD01180274
  65   67    0    0    0
SMALL
NO_CHARGES


@<TRIPOS>ATOM
   1 C1            -0.6350    -2.3949    -7.9038 C.2     
   2 C2            -0.3758    -3.0394    -6.5664 C.3     
   3 C3             0.6906    -4.1255    -6.7218 C.3     
   4 O4            -0.0291    -2.7662    -8.8809 O.2     
   5 O5            -1.5431    -1.4122    -8.0104 O.3     
   6 C6             1.8504    -5.7425    -5.3157 C.2     
   7 C7             2.1042    -6.3735    -4.0064 C.ar    
   8 C8             3.0473    -7.4057    -3.8845 C.ar    
   9 C9             3.2504    -7.9622    -2.6508 C.ar    
  10 C10            2.5211    -7.4918    -1.5599 C.ar    
  11 N11            1.6354    -6.5152    -1.7024 N.ar    
  12 C12            1.4141    -5.9485    -2.8702 C.ar    
  13 O13            2.4602    -6.1161    -6.2990 O.2     
  14 N14            0.9426    -4.7520    -5.4217 N.am    
  15 N15            2.7239    -8.0524    -0.3103 N.pl3   
  16 C16            3.7830    -9.0458    -0.1163 C.3     
  17 C17            4.1991    -9.0668     1.3559 C.3     
  18 C18            4.8404    -7.7273     1.7238 C.3     
  19 C19            5.3630    -7.7896     3.1604 C.3     
  20 C20            2.3357   -12.9112    -1.2449 C.ar    
  21 C21            3.7008   -12.6393    -1.2915 C.ar    
  22 C22            4.1667   -11.3874    -0.9252 C.ar    
  23 C23            3.2737   -10.4072    -0.5139 C.ar    
  24 C24            1.9189   -10.6766    -0.4676 C.ar    
  25 C25            1.4460   -11.9220    -0.8305 C.ar    
  26 C26            1.8294   -14.2484    -1.6418 C.ar    
  27 C27            0.4637   -14.5210    -1.5955 C.ar    
  28 C28           -0.0017   -15.7665    -1.9657 C.ar    
  29 C29            0.8848   -16.7432    -2.3822 C.ar    
  30 C30            2.2416   -16.4780    -2.4301 C.ar    
  31 C31            2.7173   -15.2342    -2.0676 C.ar    
  32 C32            0.3707   -18.1014    -2.7847 C.3     
  33 F33            0.0858   -18.1051    -4.1544 F       
  34 F34            1.3428   -19.0688    -2.5081 F       
  35 F35           -0.7936   -18.3913    -2.0654 F       
  36 O36            5.4981   -11.1183    -0.9692 O.3     
  37 C37            6.3592   -12.1730    -1.4029 C.3     
  38 H38           -0.0262    -2.2852    -5.8613 H       
  39 H39           -1.2976    -3.4859    -6.1935 H       
  40 H40            0.3410    -4.8796    -7.4269 H       
  41 H41            1.6123    -3.6789    -7.0947 H       
  42 H42           -1.6747    -1.0295    -8.8887 H       
  43 H43            3.5999    -7.7533    -4.7449 H       
  44 H44            3.9688    -8.7585    -2.5237 H       
  45 H45            0.6894    -5.1517    -2.9503 H       
  46 H46            0.4561    -4.4539    -4.6373 H       
  47 H47            2.1648    -7.7873     0.4367 H       
  48 H48            4.6430    -8.7852    -0.7332 H       
  49 H49            3.3205    -9.2325     1.9794 H       
  50 H50            4.9172    -9.8705     1.5191 H       
  51 H51            5.6679    -7.5220     1.0447 H       
  52 H52            4.0974    -6.9340     1.6416 H       
  53 H53            4.5355    -7.9950     3.8395 H       
  54 H54            6.1060    -8.5829     3.2427 H       
  55 H55            5.8199    -6.8354     3.4226 H       
  56 H56            4.3944   -13.4027    -1.6116 H       
  57 H57            1.2283    -9.9110    -0.1462 H       
  58 H58            0.3868   -12.1294    -0.7936 H       
  59 H59           -0.2293   -13.7593    -1.2701 H       
  60 H60           -1.0599   -15.9790    -1.9299 H       
  61 H61            2.9294   -17.2443    -2.7557 H       
  62 H62            3.7764   -15.0266    -2.1100 H       
  63 H63            6.2549   -13.0261    -0.7325 H       
  64 H64            6.0870   -12.4712    -2.4154 H       
  65 H65            7.3925   -11.8263    -1.3916 H       
@<TRIPOS>BOND
   1    1    2 1
   2    1    4 2
   3    1    5 1
   4    2    3 1
   5    2   38 1
   6    2   39 1
   7    3   14 1
   8    3   40 1
   9    3   41 1
  10    5   42 1
  11    6    7 1
  12    6   13 2
  13    6   14 am
  14    7    8 ar
  15    7   12 ar
  16    8    9 ar
  17    8   43 1
  18    9   10 ar
  19    9   44 1
  20   10   11 ar
  21   10   15 1
  22   11   12 ar
  23   12   45 1
  24   14   46 1
  25   15   16 1
  26   15   47 1
  27   16   17 1
  28   16   23 1
  29   16   48 1
  30   17   18 1
  31   17   49 1
  32   17   50 1
  33   18   19 1
  34   18   51 1
  35   18   52 1
  36   19   53 1
  37   19   54 1
  38   19   55 1
  39   20   21 ar
  40   20   25 ar
  41   20   26 1
  42   21   22 ar
  43   21   56 1
  44   22   23 ar
  45   22   36 1
  46   23   24 ar
  47   24   25 ar
  48   24   57 1
  49   25   58 1
  50   26   27 ar
  51   26   31 ar
  52   27   28 ar
  53   27   59 1
  54   28   29 ar
  55   28   60 1
  56   29   30 ar
  57   29   32 1
  58   30   31 ar
  59   30   61 1
  60   31   62 1
  61   32   33 1
  62   32   34 1
  63   32   35 1
  64   36   37 1
  65   37   63 1
  66   37   64 1
  67   37   65 1

#	End of record

