#	Name: ASD01001243
#	Creating user name:	WinNT
#	Creation time:	15. 06. 2019 18:55

#	Modifying user name:	WinNT
#	Modification time:	15. 06. 2019 18:55

#	Program:	/corina/corina34_cracker 3.40 0067  02.08.2006

@<TRIPOS>MOLECULE
ASD01001243
  70   72    0    0    0
SMALL
NO_CHARGES


@<TRIPOS>ATOM
   1 C1            -0.4692     1.4967     1.6895 C.ar    
   2 C2            -0.4534     0.1120     1.7736 C.ar    
   3 C3            -1.4903    -0.6235     1.2331 C.ar    
   4 C4            -2.5434     0.0192     0.6088 C.ar    
   5 C5            -2.5613     1.3991     0.5232 C.ar    
   6 C6            -1.5298     2.1394     1.0676 C.ar    
   7 C7            -3.6732    -0.7857     0.0200 C.3     
   8 C8            -4.9422     0.0262     0.0596 C.ar    
   9 C9            -3.3473    -1.1391    -1.4082 C.ar    
  10 C10           -5.7271     0.1374    -1.0729 C.ar    
  11 C11           -6.8911     0.8822    -1.0367 C.ar    
  12 C12           -7.2704     1.5154     0.1321 C.ar    
  13 C13           -6.4860     1.4034     1.2648 C.ar    
  14 C14           -5.3242     0.6550     1.2298 C.ar    
  15 C15           -3.2306    -0.1413    -2.3578 C.ar    
  16 C16           -2.9316    -0.4655    -3.6679 C.ar    
  17 C17           -2.7489    -1.7875    -4.0284 C.ar    
  18 C18           -2.8647    -2.7852    -3.0786 C.ar    
  19 C19           -3.1594    -2.4607    -1.7676 C.ar    
  20 S20           -3.8982    -2.3065     0.9830 S.3     
  21 C21           -5.3945    -3.0313     0.2576 C.3     
  22 C22           -5.7936    -4.2774     1.0505 C.3     
  23 N23           -4.7014    -5.2588     1.0028 N.3     
  24 C24           -7.0366    -4.8796     0.4478 C.2     
  25 N25           -8.2451    -4.3540     0.7303 N.am    
  26 O26           -6.9496    -5.8371    -0.2914 O.2     
  27 O27            0.5497     2.2226     2.2204 O.3     
  28 C28            0.4669     3.6438     2.0968 C.3     
  29 C29           -9.4536    -4.9394     0.1444 C.3     
  30 C30          -10.6808    -4.1608     0.6226 C.3     
  31 O31          -10.6244    -2.8254     0.1172 O.3     
  32 C32          -11.7303    -2.0090     0.5076 C.3     
  33 C33          -11.5656    -0.6089    -0.0869 C.3     
  34 N34          -11.6386    -0.6873    -1.5520 N.3     
  35 C35          -11.4841     0.6416    -2.1587 C.3     
  36 H36            0.3691    -0.3904     2.2609 H       
  37 H37           -1.4783    -1.7015     1.2981 H       
  38 H38           -3.3847     1.8987     0.0347 H       
  39 H39           -1.5442     3.2173     1.0005 H       
  40 H40           -5.4308    -0.3573    -1.9860 H       
  41 H41           -7.5040     0.9697    -1.9216 H       
  42 H42           -8.1795     2.0978     0.1603 H       
  43 H43           -6.7821     1.8984     2.1779 H       
  44 H44           -4.7114     0.5675     2.1148 H       
  45 H45           -3.3733     0.8915    -2.0761 H       
  46 H46           -2.8411     0.3140    -4.4099 H       
  47 H47           -2.5160    -2.0408    -5.0521 H       
  48 H48           -2.7223    -3.8181    -3.3603 H       
  49 H49           -3.2499    -3.2402    -1.0256 H       
  50 H50           -6.2048    -2.3032     0.2930 H       
  51 H51           -5.1989    -3.3072    -0.7787 H       
  52 H52           -5.9891    -4.0015     2.0867 H       
  53 H53           -4.5010    -5.5307     0.0520 H       
  54 H54           -3.8750    -4.9024     1.4589 H       
  55 H55           -8.3148    -3.5882     1.3215 H       
  56 H56           -0.4359     3.9997     2.5932 H       
  57 H57            1.3409     4.1004     2.5612 H       
  58 H58            0.4325     3.9154     1.0418 H       
  59 H59           -9.3917    -4.8883    -0.9426 H       
  60 H60           -9.5402    -5.9806     0.4549 H       
  61 H61          -11.5851    -4.6490     0.2591 H       
  62 H62          -10.6939    -4.1367     1.7122 H       
  63 H63          -12.6563    -2.4524     0.1417 H       
  64 H64          -11.7652    -1.9402     1.5949 H       
  65 H65          -12.3610     0.0386     0.2823 H       
  66 H66          -10.5987    -0.2006     0.2073 H       
  67 H67          -10.9523    -1.3322    -1.9142 H       
  68 H68          -10.5167     1.0585    -1.8789 H       
  69 H69          -11.5421     0.5546    -3.2437 H       
  70 H70          -12.2789     1.2977    -1.8039 H       
@<TRIPOS>BOND
   1    1    2 ar
   2    1   27 1
   3    1    6 ar
   4    2    3 ar
   5    2   36 1
   6    3    4 ar
   7    3   37 1
   8    4    5 ar
   9    4    7 1
  10    5    6 ar
  11    5   38 1
  12    6   39 1
  13    7    8 1
  14    7    9 1
  15    7   20 1
  16    8   10 ar
  17    8   14 ar
  18    9   15 ar
  19    9   19 ar
  20   10   11 ar
  21   10   40 1
  22   11   12 ar
  23   11   41 1
  24   12   13 ar
  25   12   42 1
  26   13   14 ar
  27   13   43 1
  28   14   44 1
  29   15   16 ar
  30   15   45 1
  31   16   17 ar
  32   16   46 1
  33   17   18 ar
  34   17   47 1
  35   18   19 ar
  36   18   48 1
  37   19   49 1
  38   20   21 1
  39   21   22 1
  40   21   50 1
  41   21   51 1
  42   22   23 1
  43   22   24 1
  44   22   52 1
  45   23   53 1
  46   23   54 1
  47   24   25 am
  48   24   26 2
  49   25   29 1
  50   25   55 1
  51   27   28 1
  52   28   56 1
  53   28   57 1
  54   28   58 1
  55   29   30 1
  56   29   59 1
  57   29   60 1
  58   30   31 1
  59   30   61 1
  60   30   62 1
  61   31   32 1
  62   32   33 1
  63   32   63 1
  64   32   64 1
  65   33   34 1
  66   33   65 1
  67   33   66 1
  68   34   35 1
  69   34   67 1
  70   35   68 1
  71   35   69 1
  72   35   70 1

#	End of record

