#	Name: ASD01913869
#	Creating user name:	WinNT
#	Creation time:	15. 06. 2019 20:02

#	Modifying user name:	WinNT
#	Modification time:	15. 06. 2019 20:02

#	Program:	/corina/corina34_cracker 3.40 0067  02.08.2006

@<TRIPOS>MOLECULE
ASD01913869
  42   44    0    0    0
SMALL
NO_CHARGES


@<TRIPOS>ATOM
   1 C1            -0.0192     1.4278    -0.0131 C.ar    
   2 C2             0.0008    -0.0040    -0.0141 C.1     
   3 C3             0.0171    -1.1779    -0.0150 C.1     
   4 C4             0.0371    -2.6098    -0.0160 C.ar    
   5 C5            -1.1523    -3.3387     0.1330 C.ar    
   6 C6             0.1560    -5.3344    -0.0290 C.ar    
   7 N7             1.2611    -4.6185    -0.1730 N.ar    
   8 C8             1.2402    -3.3019    -0.1713 C.ar    
   9 C9            -1.0818    -4.7173     0.1252 C.ar    
  10 C10            1.1699     2.1467    -0.1621 C.ar    
  11 C11            1.1428     3.5256    -0.1606 C.ar    
  12 C12           -1.2286     2.1130     0.1311 C.ar    
  13 N13            0.2331    -6.7251    -0.0380 N.am    
  14 C14           -0.0579     4.1973    -0.0116 C.ar    
  15 C15           -1.2400     3.4922     0.1307 C.ar    
  16 C16            0.1549    -7.3614    -1.2116 C.2     
  17 O17            0.1735    -8.6988    -1.3225 O.3     
  18 C18            0.6534    -9.4539    -0.1760 C.3     
  19 C19           -0.0190    -8.8889     1.0827 C.3     
  20 C20            0.4016    -7.4224     1.2343 C.3     
  21 O21            0.0623    -6.6976    -2.2251 O.2     
  22 O22           -1.4392    -8.9757     0.9499 O.3     
  23 C23            0.2865   -10.9302    -0.3393 C.3     
  24 C24            2.1720    -9.3079    -0.0601 C.3     
  25 H25           -2.0996    -2.8337     0.2514 H       
  26 H26            2.1620    -2.7521    -0.2914 H       
  27 H27           -1.9773    -5.3104     0.2378 H       
  28 H28            2.1077     1.6238    -0.2778 H       
  29 H29            2.0609     4.0825    -0.2757 H       
  30 H30           -2.1519     1.5640     0.2423 H       
  31 H31           -0.0729     5.2772    -0.0109 H       
  32 H32           -2.1734     4.0231     0.2466 H       
  33 H33            0.3038    -9.4545     1.9568 H       
  34 H34            1.4456    -7.3755     1.5442 H       
  35 H35           -0.2209    -6.9435     1.9900 H       
  36 H36           -1.9271    -8.6350     1.7122 H       
  37 H37            0.7467   -11.3207    -1.2470 H       
  38 H38            0.6480   -11.4919     0.5220 H       
  39 H39           -0.7967   -11.0297    -0.4093 H       
  40 H40            2.4272    -8.2559     0.0680 H       
  41 H41            2.5270    -9.8752     0.8002 H       
  42 H42            2.6438    -9.6884    -0.9661 H       
@<TRIPOS>BOND
   1    1    2 1
   2    1   10 ar
   3    1   12 ar
   4    2    3 3
   5    3    4 1
   6    4    5 ar
   7    4    8 ar
   8    5    9 ar
   9    5   25 1
  10    6    7 ar
  11    6   13 1
  12    6    9 ar
  13    7    8 ar
  14    8   26 1
  15    9   27 1
  16   10   11 ar
  17   10   28 1
  18   11   14 ar
  19   11   29 1
  20   12   15 ar
  21   12   30 1
  22   13   16 am
  23   13   20 1
  24   14   15 ar
  25   14   31 1
  26   15   32 1
  27   16   17 1
  28   16   21 2
  29   17   18 1
  30   18   19 1
  31   18   23 1
  32   18   24 1
  33   19   20 1
  34   19   22 1
  35   19   33 1
  36   20   34 1
  37   20   35 1
  38   22   36 1
  39   23   37 1
  40   23   38 1
  41   23   39 1
  42   24   40 1
  43   24   41 1
  44   24   42 1

#	End of record

