#	Name: ASD01200502
#	Creating user name:	WinNT
#	Creation time:	15. 06. 2019 19:09

#	Modifying user name:	WinNT
#	Modification time:	15. 06. 2019 19:09

#	Program:	/corina/corina34_cracker 3.40 0067  02.08.2006

@<TRIPOS>MOLECULE
ASD01200502
  25   26    0    0    0
SMALL
NO_CHARGES


@<TRIPOS>ATOM
   1 N1            -0.3226     1.1812    -0.5085 N.ar    
   2 C2            -0.2070    -0.1129    -0.2877 C.ar    
   3 C3             1.0058    -0.7600    -0.4875 C.ar    
   4 C4             2.1015    -0.0210    -0.9262 C.ar    
   5 C5             1.9343     1.3366    -1.1460 C.ar    
   6 C6             0.6957     1.9090    -0.9242 C.ar    
   7 N7             1.1247    -2.1336    -0.2512 N.am    
   8 C8             2.3591    -2.8349    -0.6128 C.3     
   9 C9             0.1038    -2.8119     0.3092 C.2     
  10 O10           -0.8894    -2.2171     0.6823 O.2     
  11 O11            0.9637    -6.3189     0.6102 O.3     
  12 C12            1.3153    -5.0445     0.4139 C.2     
  13 C13            0.1908    -4.2740     0.4700 C.2     
  14 C14           -0.9161    -5.2076     0.7248 C.2     
  15 C15           -0.3611    -6.4271     0.7962 C.2     
  16 H16           -1.0637    -0.6758     0.0523 H       
  17 H17            3.0582    -0.4944    -1.0906 H       
  18 H18            2.7622     1.9410    -1.4860 H       
  19 H19            0.5599     2.9668    -1.0943 H       
  20 H20            3.0081    -2.9018     0.2604 H       
  21 H21            2.1175    -3.8382    -0.9637 H       
  22 H22            2.8701    -2.2864    -1.4041 H       
  23 H23            2.3190    -4.6855     0.2403 H       
  24 H24           -1.9623    -4.9619     0.8326 H       
  25 H25           -0.8952    -7.3486     0.9747 H       
@<TRIPOS>BOND
   1    1    2 ar
   2    1    6 ar
   3    2    3 ar
   4    2   16 1
   5    3    4 ar
   6    3    7 1
   7    4    5 ar
   8    4   17 1
   9    5    6 ar
  10    5   18 1
  11    6   19 1
  12    7    8 1
  13    7    9 am
  14    8   20 1
  15    8   21 1
  16    8   22 1
  17    9   10 2
  18    9   13 1
  19   11   12 1
  20   11   15 1
  21   12   13 2
  22   12   23 1
  23   13   14 1
  24   14   15 2
  25   14   24 1
  26   15   25 1

#	End of record

