#	Name: ASD03220007
#	Creating user name:	WinNT
#	Creation time:	15. 06. 2019 20:34

#	Modifying user name:	WinNT
#	Modification time:	15. 06. 2019 20:34

#	Program:	/corina/corina34_cracker 3.40 0067  02.08.2006

@<TRIPOS>MOLECULE
ASD03220007
  60   61    0    0    0
SMALL
NO_CHARGES


@<TRIPOS>ATOM
   1 C1            -0.0187     1.5258     0.0104 C.3     
   2 C2             0.0021    -0.0041     0.0020 C.3     
   3 C3             0.7182    -0.4975    -1.2568 C.3     
   4 C4            -0.0892    -0.0968    -2.4931 C.3     
   5 C5             0.6269    -0.5903    -3.7519 C.3     
   6 C6            -0.1806    -0.1896    -4.9882 C.3     
   7 C7             0.5953    -0.5723    -6.2501 C.3     
   8 C8            -1.5262    -0.9176    -4.9764 C.3     
   9 C9             0.7421    -0.5109     1.2415 C.3     
  10 C10           -0.0416    -0.1236     2.4973 C.3     
  11 O11            0.6496    -0.5970     3.6550 O.3     
  12 C12            0.0831    -0.3345     4.8620 C.ar    
  13 C13            0.7003    -0.7649     6.0276 C.ar    
  14 C14            0.1224    -0.4968     7.2534 C.ar    
  15 C15           -1.0701     0.1998     7.3192 C.ar    
  16 C16           -1.6875     0.6295     6.1591 C.ar    
  17 C17           -1.1105     0.3693     4.9311 C.ar    
  18 C18           -1.6983     0.4909     8.6578 C.3     
  19 O19           -1.2154     1.7431     9.1484 O.3     
  20 C20           -1.6859     2.1558    10.3515 C.ar    
  21 C21           -2.5933     1.3751    11.0481 C.ar    
  22 C22           -3.0748     1.7934    12.2750 C.ar    
  23 C23           -2.6581     2.9930    12.8210 C.ar    
  24 C24           -1.7512     3.7911    12.1428 C.ar    
  25 C25           -1.2506     3.3741    10.8987 C.ar    
  26 C26           -0.2888     4.2105    10.1704 C.2     
  27 O27            0.0799     5.2757    10.6471 O.co2   
  28 O28            0.1444     3.8425     9.0865 O.co2   
  29 O29           -1.3445     4.9677    12.6805 O.3     
  30 H30            1.0039     1.9031     0.0027 H       
  31 H31           -0.5459     1.8868    -0.8726 H       
  32 H32           -0.5289     1.8773     0.9072 H       
  33 H33           -1.0205    -0.3814     0.0098 H       
  34 H34            1.7103    -0.0491    -1.3098 H       
  35 H35            0.8116    -1.5829    -1.2198 H       
  36 H36           -1.0813    -0.5452    -2.4401 H       
  37 H37           -0.1826     0.9885    -2.5300 H       
  38 H38            1.6190    -0.1418    -3.8049 H       
  39 H39            0.7203    -1.6756    -3.7149 H       
  40 H40           -0.3499     0.8871    -4.9783 H       
  41 H41            0.7646    -1.6490    -6.2600 H       
  42 H42            0.0201    -0.2869    -7.1308 H       
  43 H43            1.5540    -0.0537    -6.2585 H       
  44 H44           -2.0789    -0.6450    -4.0774 H       
  45 H45           -2.1014    -0.6322    -5.8571 H       
  46 H46           -1.3569    -1.9943    -4.9863 H       
  47 H47            0.8346    -1.5958     1.1912 H       
  48 H48            1.7350    -0.0630     1.2804 H       
  49 H49           -0.1341     0.9613     2.5476 H       
  50 H50           -1.0345    -0.5716     2.4584 H       
  51 H51            1.6316    -1.3094     5.9766 H       
  52 H52            0.6023    -0.8320     8.1610 H       
  53 H53           -2.6193     1.1728     6.2131 H       
  54 H54           -1.5931     0.7051     4.0252 H       
  55 H55           -2.7818     0.5370     8.5483 H       
  56 H56           -1.4376    -0.2999     9.3612 H       
  57 H57           -2.9263     0.4361    10.6313 H       
  58 H58           -3.7824     1.1781    12.8108 H       
  59 H59           -3.0413     3.3096    13.7798 H       
  60 H60           -0.5594     4.8938    13.2402 H       
@<TRIPOS>BOND
   1    1    2 1
   2    1   30 1
   3    1   31 1
   4    1   32 1
   5    2    3 1
   6    2    9 1
   7    2   33 1
   8    3    4 1
   9    3   34 1
  10    3   35 1
  11    4    5 1
  12    4   36 1
  13    4   37 1
  14    5    6 1
  15    5   38 1
  16    5   39 1
  17    6    7 1
  18    6    8 1
  19    6   40 1
  20    7   41 1
  21    7   42 1
  22    7   43 1
  23    8   44 1
  24    8   45 1
  25    8   46 1
  26    9   10 1
  27    9   47 1
  28    9   48 1
  29   10   11 1
  30   10   49 1
  31   10   50 1
  32   11   12 1
  33   12   13 ar
  34   12   17 ar
  35   13   14 ar
  36   13   51 1
  37   14   15 ar
  38   14   52 1
  39   15   16 ar
  40   15   18 1
  41   16   17 ar
  42   16   53 1
  43   17   54 1
  44   18   19 1
  45   18   55 1
  46   18   56 1
  47   19   20 1
  48   20   21 ar
  49   20   25 ar
  50   21   22 ar
  51   21   57 1
  52   22   23 ar
  53   22   58 1
  54   23   24 ar
  55   23   59 1
  56   24   25 ar
  57   24   29 1
  58   25   26 1
  59   26   27 ar
  60   26   28 ar
  61   29   60 1

#	End of record

