#	Name: ASD03092458
#	Creating user name:	WinNT
#	Creation time:	15. 06. 2019 20:32

#	Modifying user name:	WinNT
#	Modification time:	15. 06. 2019 20:32

#	Program:	/corina/corina34_cracker 3.40 0067  02.08.2006

@<TRIPOS>MOLECULE
ASD03092458
  62   65    0    0    0
SMALL
NO_CHARGES


@<TRIPOS>ATOM
   1 C1             0.0349     0.5950    -0.2731 C.2     
   2 C2            -0.1213    -0.7550    -0.2206 C.2     
   3 C3             1.1314    -1.4722    -0.2684 C.2     
   4 C4             2.1868    -0.6712    -0.3541 C.2     
   5 S5             1.6846     1.0102    -0.3801 S.3     
   6 C6            -1.4323    -1.4172    -0.1248 C.2     
   7 O7            -1.4989    -2.6310    -0.0813 O.2     
   8 N8            -2.5590    -0.6786    -0.0854 N.am    
   9 C9             3.6173    -1.1407    -0.4201 C.3     
  10 C10            1.2305    -2.9753    -0.2249 C.3     
  11 C11           -3.8639    -1.3377     0.0100 C.3     
  12 S12           -6.7168     1.3631     0.7617 S.3     
  13 C13           -6.3913     1.1270    -0.8998 C.2     
  14 N14           -5.4567     0.2379    -1.0540 N.2     
  15 C15           -4.9522    -0.2956     0.0373 C.2     
  16 C16           -5.4917     0.1693     1.1836 C.2     
  17 C17           -5.7102    -0.9743     4.7541 C.ar    
  18 C18           -6.1018    -0.5890     3.4903 C.ar    
  19 C19           -5.1206    -0.2483     2.5497 C.ar    
  20 C20           -3.7771    -0.3156     2.9424 C.ar    
  21 C21           -3.4762    -0.7111     4.2277 C.ar    
  22 N22           -4.4324    -1.0239     5.0825 N.ar    
  23 C23           -2.0356    -0.7879     4.6634 C.3     
  24 C24           -6.7551    -1.3374     5.7775 C.3     
  25 N25           -7.0318     1.7876    -1.9322 N.3     
  26 C26           -8.0365     2.7273    -1.4135 C.3     
  27 C27           -8.7608     3.3911    -2.5876 C.3     
  28 O28           -7.8015     4.0350    -3.4305 O.3     
  29 C29           -6.8083     3.1489    -3.9538 C.3     
  30 C30           -6.0642     2.4827    -2.7935 C.3     
  31 C31           -5.8170     3.9406    -4.8090 C.3     
  32 C32           -9.7517     4.4286    -2.0559 C.3     
  33 H33           -0.7766     1.3073    -0.2543 H       
  34 H34           -2.5059     0.2893    -0.1200 H       
  35 H35            3.9041    -1.2871    -1.4614 H       
  36 H36            4.2667    -0.3921     0.0338 H       
  37 H37            3.7159    -2.0825     0.1198 H       
  38 H38            1.1960    -3.3712    -1.2399 H       
  39 H39            2.1701    -3.2640     0.2460 H       
  40 H40            0.3969    -3.3779     0.3506 H       
  41 H41           -4.0060    -1.9888    -0.8526 H       
  42 H42           -3.9056    -1.9306     0.9236 H       
  43 H43           -7.1490    -0.5510     3.2286 H       
  44 H44           -2.9896    -0.0618     2.2482 H       
  45 H45           -1.7301     0.1722     5.0793 H       
  46 H46           -1.9261    -1.5636     5.4213 H       
  47 H47           -1.4086    -1.0279     3.8047 H       
  48 H48           -6.9702    -2.4041     5.7144 H       
  49 H49           -6.3849    -1.0998     6.7748 H       
  50 H50           -7.6659    -0.7709     5.5836 H       
  51 H51           -8.7572     2.1872    -0.7996 H       
  52 H52           -7.5440     3.4906    -0.8111 H       
  53 H53           -9.2974     2.6339    -3.1593 H       
  54 H54           -7.2881     2.3847    -4.5652 H       
  55 H55           -5.5402     3.2422    -2.2132 H       
  56 H56           -5.3452     1.7641    -3.1870 H       
  57 H57           -5.3365     4.7032    -4.1961 H       
  58 H58           -5.0603     3.2648    -5.2076 H       
  59 H59           -6.3480     4.4179    -5.6327 H       
  60 H60           -9.2137     5.1862    -1.4862 H       
  61 H61          -10.2670     4.9008    -2.8923 H       
  62 H62          -10.4802     3.9378    -1.4106 H       
@<TRIPOS>BOND
   1    1    2 2
   2    1    5 1
   3    1   33 1
   4    2    3 1
   5    2    6 1
   6    3    4 2
   7    3   10 1
   8    4    5 1
   9    4    9 1
  10    6    7 2
  11    6    8 am
  12    8   11 1
  13    8   34 1
  14    9   35 1
  15    9   36 1
  16    9   37 1
  17   10   38 1
  18   10   39 1
  19   10   40 1
  20   11   15 1
  21   11   41 1
  22   11   42 1
  23   12   13 1
  24   12   16 1
  25   13   14 2
  26   13   25 1
  27   14   15 1
  28   15   16 2
  29   16   19 1
  30   17   18 ar
  31   17   22 ar
  32   17   24 1
  33   18   19 ar
  34   18   43 1
  35   19   20 ar
  36   20   21 ar
  37   20   44 1
  38   21   22 ar
  39   21   23 1
  40   23   45 1
  41   23   46 1
  42   23   47 1
  43   24   48 1
  44   24   49 1
  45   24   50 1
  46   25   26 1
  47   25   30 1
  48   26   27 1
  49   26   51 1
  50   26   52 1
  51   27   28 1
  52   27   32 1
  53   27   53 1
  54   28   29 1
  55   29   30 1
  56   29   31 1
  57   29   54 1
  58   30   55 1
  59   30   56 1
  60   31   57 1
  61   31   58 1
  62   31   59 1
  63   32   60 1
  64   32   61 1
  65   32   62 1

#	End of record

