#	Name: ASD07930411
#	Creating user name:	WinNT
#	Creation time:	15. 06. 2019 21:12

#	Modifying user name:	WinNT
#	Modification time:	15. 06. 2019 21:12

#	Program:	/corina/corina34_cracker 3.40 0067  02.08.2006

@<TRIPOS>MOLECULE
ASD07930411
  45   47    0    0    0
SMALL
NO_CHARGES


@<TRIPOS>ATOM
   1 N1             1.9372    -2.8826    -0.4247 N.2     
   2 N2            -0.3255    -2.8529    -1.0083 N.pl3   
   3 C3            -1.3634    -1.8172    -0.9738 C.3     
   4 C4            -1.3741    -1.0668    -2.3127 C.3     
   5 S5             0.2945    -0.4010    -2.6076 S.o2    
   6 N6             1.2695    -1.7279    -2.3519 N.am    
   7 C7             0.9895    -2.5013    -1.2343 C.2     
   8 C8             2.3676    -2.0617    -3.2622 C.3     
   9 C9            -1.0668    -0.8343     0.1605 C.3     
  10 C10           -2.7076    -2.4593    -0.7460 C.ar    
  11 C11           -3.1981    -3.3783    -1.6577 C.ar    
  12 C12           -4.4334    -3.9700    -1.4517 C.ar    
  13 C13           -5.1791    -3.6433    -0.3342 C.ar    
  14 C14           -4.6870    -2.7203     0.5826 C.ar    
  15 C15           -3.4465    -2.1340     0.3755 C.ar    
  16 O16            0.4754    -0.0838    -3.9809 O.2     
  17 O17            0.6605     0.5142    -1.5840 O.2     
  18 F18           -2.4709    -3.6984    -2.7503 F       
  19 F19           -6.3845    -4.2195    -0.1333 F       
  20 N20           -5.4401    -2.3872     1.7158 N.am    
  21 C21           -4.8191    -2.0968     2.8762 C.2     
  22 O22           -3.6115    -2.2114     2.9649 O.2     
  23 C23           -5.6035    -1.6405     4.0378 C.2     
  24 C24           -5.1143    -1.3084     5.2637 C.2     
  25 N25           -6.9521    -1.4664     4.0846 N.2     
  26 C26           -7.2734    -1.0559     5.2748 C.2     
  27 O27           -6.1642    -0.9501     6.0201 O.3     
  28 C28           -8.6717    -0.7442     5.7423 C.3     
  29 H29            2.8563    -2.6259    -0.5988 H       
  30 H30           -0.5625    -3.7831    -0.8684 H       
  31 H31           -1.6434    -1.7524    -3.1161 H       
  32 H32           -2.0937    -0.2492    -2.2700 H       
  33 H33            3.2796    -1.5667    -2.9284 H       
  34 H34            2.5207    -3.1409    -3.2665 H       
  35 H35            2.1197    -1.7259    -4.2692 H       
  36 H36           -0.0953    -0.3691    -0.0065 H       
  37 H37           -1.8385    -0.0648     0.1856 H       
  38 H38           -1.0554    -1.3685     1.1106 H       
  39 H39           -4.8143    -4.6865    -2.1643 H       
  40 H40           -3.0625    -1.4171     1.0862 H       
  41 H41           -6.4086    -2.3654     1.6654 H       
  42 H42           -4.0788    -1.3291     5.5698 H       
  43 H43           -9.1241    -1.6436     6.1601 H       
  44 H44           -8.6347     0.0324     6.5063 H       
  45 H45           -9.2677    -0.3959     4.8988 H       
@<TRIPOS>BOND
   1    1    7 2
   2    1   29 1
   3    2    3 1
   4    2    7 1
   5    2   30 1
   6    3    4 1
   7    3    9 1
   8    3   10 1
   9    4    5 1
  10    4   31 1
  11    4   32 1
  12    5    6 am
  13    5   16 2
  14    5   17 2
  15    6    7 1
  16    6    8 1
  17    8   33 1
  18    8   34 1
  19    8   35 1
  20    9   36 1
  21    9   37 1
  22    9   38 1
  23   10   11 ar
  24   10   15 ar
  25   11   12 ar
  26   11   18 1
  27   12   13 ar
  28   12   39 1
  29   13   14 ar
  30   13   19 1
  31   14   15 ar
  32   14   20 1
  33   15   40 1
  34   20   21 am
  35   20   41 1
  36   21   22 2
  37   21   23 1
  38   23   25 1
  39   23   24 2
  40   24   27 1
  41   24   42 1
  42   25   26 2
  43   26   27 1
  44   26   28 1
  45   28   43 1
  46   28   44 1
  47   28   45 1

#	End of record

