#	Name: ASD01814037
#	Creating user name:	WinNT
#	Creation time:	15. 06. 2019 19:31

#	Modifying user name:	WinNT
#	Modification time:	15. 06. 2019 19:31

#	Program:	/corina/corina34_cracker 3.40 0067  02.08.2006

@<TRIPOS>MOLECULE
ASD01814037
  44   46    0    0    0
SMALL
NO_CHARGES


@<TRIPOS>ATOM
   1 C1            -0.5549     0.7245     0.2431 C.ar    
   2 C2            -0.2945    -0.6370     0.2290 C.ar    
   3 C3             0.9981    -1.1069     0.1357 C.ar    
   4 C4             2.0607    -0.2119     0.0537 C.ar    
   5 C5             1.7972     1.1689     0.0675 C.ar    
   6 C6             0.4827     1.6321     0.1629 C.ar    
   7 N7             3.3571    -0.6709    -0.0394 N.pl3   
   8 C8             4.4131     0.1489    -0.1197 C.2     
   9 C9             4.2796     1.5225    -0.1154 C.2     
  10 C10            2.9312     2.1057    -0.0199 C.2     
  11 F11            0.2283     2.9589     0.1763 F       
  12 O12            2.7602     3.3123    -0.0126 O.2     
  13 C13            5.4637     2.3885    -0.2043 C.2     
  14 O14            5.3203     3.7289    -0.1992 O.3     
  15 O15            6.5724     1.8960    -0.2824 O.2     
  16 C16            3.5897    -2.1173    -0.0506 C.3     
  17 C17            3.5656    -2.6190    -1.4714 C.ar    
  18 C18            4.7346    -2.6582    -2.2091 C.ar    
  19 C19            4.7159    -3.1175    -3.5115 C.ar    
  20 C20            3.5215    -3.5405    -4.0800 C.ar    
  21 C21            2.3494    -3.5003    -3.3363 C.ar    
  22 C22            2.3757    -3.0445    -2.0328 C.ar    
  23 N23            3.4991    -4.0059    -5.3993 N.am    
  24 C24            4.5417    -4.7094    -5.8836 C.2     
  25 C25            4.4740    -5.3003    -7.2683 C.3     
  26 C26            5.7771    -6.0430    -7.5701 C.3     
  27 O27            5.5346    -4.8668    -5.2050 O.2     
  28 H28           -1.5735     1.0766     0.3125 H       
  29 H29           -1.1138    -1.3377     0.2922 H       
  30 H30            1.1864    -2.1703     0.1265 H       
  31 H31            5.4021    -0.2792    -0.1897 H       
  32 H32            6.1281     4.2570    -0.2596 H       
  33 H33            4.5612    -2.3325     0.3943 H       
  34 H34            2.8087    -2.6154     0.5239 H       
  35 H35            5.6631    -2.3290    -1.7665 H       
  36 H36            5.6290    -3.1472    -4.0874 H       
  37 H37            1.4190    -3.8286    -3.7755 H       
  38 H38            1.4645    -3.0133    -1.4538 H       
  39 H39            2.7331    -3.8223    -5.9655 H       
  40 H40            3.6372    -5.9965    -7.3256 H       
  41 H41            4.3333    -4.5023    -7.9974 H       
  42 H42            6.6138    -5.3468    -7.5128 H       
  43 H43            5.9177    -6.8410    -6.8411 H       
  44 H44            5.7280    -6.4704    -8.5717 H       
@<TRIPOS>BOND
   1    1    2 ar
   2    1    6 ar
   3    1   28 1
   4    2    3 ar
   5    2   29 1
   6    3    4 ar
   7    3   30 1
   8    4    5 ar
   9    4    7 1
  10    5    6 ar
  11    5   10 1
  12    6   11 1
  13    7    8 1
  14    7   16 1
  15    8    9 2
  16    8   31 1
  17    9   10 1
  18    9   13 1
  19   10   12 2
  20   13   14 1
  21   13   15 2
  22   14   32 1
  23   16   17 1
  24   16   33 1
  25   16   34 1
  26   17   18 ar
  27   17   22 ar
  28   18   19 ar
  29   18   35 1
  30   19   20 ar
  31   19   36 1
  32   20   21 ar
  33   20   23 1
  34   21   22 ar
  35   21   37 1
  36   22   38 1
  37   23   24 am
  38   23   39 1
  39   24   25 1
  40   24   27 2
  41   25   26 1
  42   25   40 1
  43   25   41 1
  44   26   42 1
  45   26   43 1
  46   26   44 1

#	End of record

