#	Name: ASD01916512
#	Creating user name:	WinNT
#	Creation time:	15. 06. 2019 20:07

#	Modifying user name:	WinNT
#	Modification time:	15. 06. 2019 20:07

#	Program:	/corina/corina34_cracker 3.40 0067  02.08.2006

@<TRIPOS>MOLECULE
ASD01916512
  44   47    0    0    0
SMALL
NO_CHARGES


@<TRIPOS>ATOM
   1 C1            -0.0171     1.4104     0.0098 C.ar    
   2 C2             0.0021    -0.0041     0.0020 C.ar    
   3 C3            -1.1935    -0.7261     0.0434 C.ar    
   4 C4            -2.3879    -0.0613     0.0725 C.ar    
   5 C5            -2.4225     1.3403     0.0626 C.ar    
   6 C6            -1.2400     2.0768     0.0340 C.ar    
   7 N7             1.1602     2.0764     0.0021 N.2     
   8 C8             2.3185     1.4675    -0.0361 C.2     
   9 N9             2.4189     0.1184    -0.1453 N.am    
  10 C10            1.3089    -0.6634    -0.0614 C.2     
  11 C11           -3.6827     2.0201     0.0825 C.1     
  12 C12           -4.7159     2.5774     0.0988 C.1     
  13 C13           -5.9761     3.2572     0.1187 C.ar    
  14 N14           -6.0092     4.5863     0.1093 N.ar    
  15 C15           -7.1478     5.2478     0.1265 C.ar    
  16 C16           -8.3583     4.5792     0.1551 C.ar    
  17 C17           -8.3709     3.1909     0.1658 C.ar    
  18 C18           -7.1622     2.5189     0.1420 C.ar    
  19 O19            1.3989    -1.8774    -0.0392 O.2     
  20 C20            3.5394     2.3489     0.0975 C.3     
  21 C21            4.7622     1.6617    -0.5070 C.3     
  22 C22            4.8677     0.2580     0.1033 C.3     
  23 C23            3.6873    -0.5686    -0.4006 C.3     
  24 C24            6.1802    -0.3971    -0.3316 C.3     
  25 C25            4.8178     0.3532     1.6295 C.3     
  26 F26           -1.1694    -2.0769     0.0541 F       
  27 F27            3.3120     3.5582    -0.5682 F       
  28 H28           -3.3116    -0.6200     0.1030 H       
  29 H29           -1.2714     3.1563     0.0300 H       
  30 H30           -7.1361     6.3277     0.1185 H       
  31 H31           -9.2858     5.1323     0.1694 H       
  32 H32           -9.3040     2.6476     0.1881 H       
  33 H33           -7.1354     1.4393     0.1495 H       
  34 H34            3.7243     2.5509     1.1525 H       
  35 H35            4.6451     1.5856    -1.5881 H       
  36 H36            5.6599     2.2338    -0.2725 H       
  37 H37            3.6815    -1.5321     0.1090 H       
  38 H38            3.7965    -0.7322    -1.4727 H       
  39 H39            7.0194     0.2090     0.0098 H       
  40 H40            6.2507    -1.3937     0.1042 H       
  41 H41            6.2055    -0.4733    -1.4187 H       
  42 H42            3.8760     0.8095     1.9345 H       
  43 H43            4.8930    -0.6460     2.0585 H       
  44 H44            5.6486     0.9638     1.9829 H       
@<TRIPOS>BOND
   1    1    2 ar
   2    1    7 1
   3    1    6 ar
   4    2    3 ar
   5    2   10 1
   6    3    4 ar
   7    3   26 1
   8    4    5 ar
   9    4   28 1
  10    5    6 ar
  11    5   11 1
  12    6   29 1
  13    7    8 2
  14    8    9 1
  15    8   20 1
  16    9   10 am
  17    9   23 1
  18   10   19 2
  19   11   12 3
  20   12   13 1
  21   13   14 ar
  22   13   18 ar
  23   14   15 ar
  24   15   16 ar
  25   15   30 1
  26   16   17 ar
  27   16   31 1
  28   17   18 ar
  29   17   32 1
  30   18   33 1
  31   20   21 1
  32   20   27 1
  33   20   34 1
  34   21   22 1
  35   21   35 1
  36   21   36 1
  37   22   23 1
  38   22   24 1
  39   22   25 1
  40   23   37 1
  41   23   38 1
  42   24   39 1
  43   24   40 1
  44   24   41 1
  45   25   42 1
  46   25   43 1
  47   25   44 1

#	End of record

