#	Name: ASD01880371
#	Creating user name:	WinNT
#	Creation time:	15. 06. 2019 19:40

#	Modifying user name:	WinNT
#	Modification time:	15. 06. 2019 19:40

#	Program:	/corina/corina34_cracker 3.40 0067  02.08.2006

@<TRIPOS>MOLECULE
ASD01880371
  34   36    0    0    0
SMALL
NO_CHARGES


@<TRIPOS>ATOM
   1 C1            -0.0158     1.3150     0.0093 C.ar    
   2 N2             0.0021    -0.0041     0.0020 N.ar    
   3 C3            -1.1240    -0.7066     0.0090 C.ar    
   4 C4            -2.3638    -0.0142     0.0245 C.ar    
   5 C5            -2.3227     1.3854     0.0317 C.ar    
   6 N6            -1.1360     2.0010     0.0291 N.ar    
   7 C7            -3.7229    -0.5171     0.0347 C.2     
   8 C8            -4.6583     0.4139     0.0487 C.2     
   9 S9            -3.9605     2.0226     0.0507 S.3     
  10 C10           -6.1383     0.1304     0.0608 C.3     
  11 C11            1.2939     2.0604     0.0008 C.3     
  12 C12           -1.0882    -2.1862     0.0002 C.ar    
  13 C13           -0.0891    -2.8575    -0.7061 C.ar    
  14 C14           -0.0586    -4.2354    -0.7116 C.ar    
  15 C15           -1.0207    -4.9558    -0.0154 C.ar    
  16 C16           -2.0165    -4.2910     0.6886 C.ar    
  17 C17           -2.0501    -2.9133     0.7029 C.ar    
  18 O18           -0.9878    -6.3135    -0.0235 O.3     
  19 O19           -0.1928    -6.8984     1.0645 O.3     
  20 C20           -0.1582    -8.3270     1.0561 C.3     
  21 H21           -3.9526    -1.5724     0.0309 H       
  22 H22           -6.4856     0.0562     1.0913 H       
  23 H23           -6.6673     0.9390    -0.4436 H       
  24 H24           -6.3325    -0.8092    -0.4566 H       
  25 H25            1.5998     2.2457    -1.0289 H       
  26 H26            1.1743     3.0109     0.5209 H       
  27 H27            2.0547     1.4640     0.5042 H       
  28 H28            0.6590    -2.2980    -1.2479 H       
  29 H29            0.7141    -4.7555    -1.2583 H       
  30 H30           -2.7632    -4.8544     1.2285 H       
  31 H31           -2.8245    -2.3970     1.2508 H       
  32 H32           -1.1719    -8.7155     1.1537 H       
  33 H33            0.2753    -8.6744     0.1183 H       
  34 H34            0.4484    -8.6807     1.8898 H       
@<TRIPOS>BOND
   1    1    2 ar
   2    1   11 1
   3    1    6 ar
   4    2    3 ar
   5    3    4 ar
   6    3   12 1
   7    4    5 ar
   8    4    7 1
   9    5    6 ar
  10    5    9 1
  11    7    8 2
  12    7   21 1
  13    8    9 1
  14    8   10 1
  15   10   22 1
  16   10   23 1
  17   10   24 1
  18   11   25 1
  19   11   26 1
  20   11   27 1
  21   12   13 ar
  22   12   17 ar
  23   13   14 ar
  24   13   28 1
  25   14   15 ar
  26   14   29 1
  27   15   16 ar
  28   15   18 1
  29   16   17 ar
  30   16   30 1
  31   17   31 1
  32   18   19 1
  33   19   20 1
  34   20   32 1
  35   20   33 1
  36   20   34 1

#	End of record

