#	Name: ASD02560455
#	Creating user name:	WinNT
#	Creation time:	15. 06. 2019 20:25

#	Modifying user name:	WinNT
#	Modification time:	15. 06. 2019 20:25

#	Program:	/corina/corina34_cracker 3.40 0067  02.08.2006

@<TRIPOS>MOLECULE
ASD02560455
  40   43    0    0    0
SMALL
NO_CHARGES


@<TRIPOS>ATOM
   1 C1             0.0960     1.9189    -0.0083 C.2     
   2 C2            -0.0384     0.5189    -0.0003 C.2     
   3 C3             1.0542    -0.2701     0.0247 C.2     
   4 N4             2.3089     0.2774     0.0427 N.pl3   
   5 C5             2.4717     1.6439     0.0351 C.2     
   6 C6             1.3345     2.4789     0.0089 C.2     
   7 C7             3.5569    -0.2809     0.0684 C.2     
   8 C8             4.4602     0.7611     0.0759 C.2     
   9 N9             3.7666     1.9140     0.0552 N.2     
  10 C10            5.9362     0.6335     0.1030 C.ar    
  11 N11            3.8585    -1.6434     0.0844 N.3     
  12 C12            2.6427    -2.4497     0.2569 C.3     
  13 C13            6.7215     1.3866    -0.7728 C.ar    
  14 C14            1.9883    -2.7442    -1.1157 C.3     
  15 C15            6.5473    -0.2345     1.0064 C.ar    
  16 C16            7.9227    -0.3494     1.0271 C.ar    
  17 C17            8.6958     0.3944     0.1540 C.ar    
  18 C18            8.0972     1.2624    -0.7419 C.ar    
  19 F19            6.1374     2.2340    -1.6481 F       
  20 C20            2.9944    -3.8440     0.8154 C.3     
  21 C21            2.0537    -4.8452     0.1222 C.3     
  22 C22            1.1633    -4.0243    -0.8333 C.3     
  23 H23           -0.7822     2.5471    -0.0324 H       
  24 H24           -1.0223     0.0737    -0.0140 H       
  25 H25            0.9388    -1.3439     0.0309 H       
  26 H26            1.4470     3.5530     0.0030 H       
  27 H27            4.3560    -1.9134    -0.7508 H       
  28 H28            1.9391    -1.9411     0.9160 H       
  29 H29            1.3373    -1.9237    -1.4173 H       
  30 H30            2.7486    -2.9340    -1.8733 H       
  31 H31            5.9457    -0.8159     1.6894 H       
  32 H32            8.3966    -1.0215     1.7272 H       
  33 H33            9.7715     0.3004     0.1746 H       
  34 H34            8.7061     1.8402    -1.4215 H       
  35 H35            4.0321    -4.0869     0.5869 H       
  36 H36            2.8340    -3.8658     1.8933 H       
  37 H37            2.6349    -5.5740    -0.4427 H       
  38 H38            1.4368    -5.3529     0.8637 H       
  39 H39            0.2189    -3.7710    -0.3515 H       
  40 H40            0.9857    -4.5752    -1.7570 H       
@<TRIPOS>BOND
   1    1    2 1
   2    1    6 2
   3    1   23 1
   4    2    3 2
   5    2   24 1
   6    3    4 1
   7    3   25 1
   8    4    5 1
   9    4    7 1
  10    5    6 1
  11    5    9 2
  12    6   26 1
  13    7    8 2
  14    7   11 1
  15    8    9 1
  16    8   10 1
  17   10   15 ar
  18   10   13 ar
  19   11   12 1
  20   11   27 1
  21   12   20 1
  22   12   14 1
  23   12   28 1
  24   13   19 1
  25   13   18 ar
  26   14   22 1
  27   14   29 1
  28   14   30 1
  29   15   16 ar
  30   15   31 1
  31   16   17 ar
  32   16   32 1
  33   17   18 ar
  34   17   33 1
  35   18   34 1
  36   20   21 1
  37   20   35 1
  38   20   36 1
  39   21   22 1
  40   21   37 1
  41   21   38 1
  42   22   39 1
  43   22   40 1

#	End of record

