#	Name: ASD01917338
#	Creating user name:	WinNT
#	Creation time:	15. 06. 2019 20:09

#	Modifying user name:	WinNT
#	Modification time:	15. 06. 2019 20:09

#	Program:	/corina/corina34_cracker 3.40 0067  02.08.2006

@<TRIPOS>MOLECULE
ASD01917338
  52   55    0    0    0
SMALL
NO_CHARGES


@<TRIPOS>ATOM
   1 C1            -0.0089     1.3965     0.0074 C.ar    
   2 C2             0.0126     0.0023     0.0030 C.ar    
   3 N3             1.1347     2.0754    -0.0057 N.ar    
   4 N4             1.1679    -0.6378    -0.0142 N.ar    
   5 C5             2.3011     0.0416    -0.0272 C.ar    
   6 C6             2.2831     1.4288    -0.0228 C.ar    
   7 C7            -1.3019     2.1195     0.0205 C.2     
   8 O8            -2.3458     1.4975     0.0274 O.2     
   9 N9            -1.3205     3.4671     0.0247 N.am    
  10 C10           -2.5991     4.1821     0.0377 C.3     
  11 C11           -3.4783     3.8403    -1.1780 C.3     
  12 C12           -4.8707     4.4394    -0.9705 C.3     
  13 C13           -4.7703     5.9460    -0.7239 C.3     
  14 C14           -3.8355     6.1971     0.4723 C.3     
  15 C15           -4.2301     5.1993     1.5855 C.3     
  16 C16           -3.4315     3.8904     1.3076 C.3     
  17 C17           -2.4225     5.7236     0.0404 C.3     
  18 C18           -3.8669     7.6296     0.9392 C.2     
  19 N19           -5.0260     8.1779     1.3542 N.am    
  20 O20           -2.8491     8.2890     0.9414 O.2     
  21 C21           -3.9044    11.3389     2.5853 C.ar    
  22 N22           -3.8987    10.1208     2.0827 N.ar    
  23 C23           -5.0363     9.4629     1.8852 C.ar    
  24 C24           -6.2414    10.0822     2.2187 C.ar    
  25 C25           -6.1991    11.3600     2.7429 C.ar    
  26 N26           -5.0249    11.9512     2.9105 N.ar    
  27 C27           -2.5926    12.0490     2.7999 C.3     
  28 C28            3.5790     2.1978    -0.0382 C.3     
  29 H29           -0.9135    -0.5532     0.0140 H       
  30 H30            3.2442    -0.4845    -0.0412 H       
  31 H31           -0.4872     3.9637     0.0192 H       
  32 H32           -3.0320     4.2589    -2.0801 H       
  33 H33           -3.5582     2.7578    -1.2775 H       
  34 H34           -5.4770     4.2589    -1.8582 H       
  35 H35           -5.3435     3.9640    -0.1112 H       
  36 H36           -4.3670     6.4347    -1.6108 H       
  37 H37           -5.7600     6.3462    -0.5037 H       
  38 H38           -3.9599     5.6014     2.5620 H       
  39 H39           -5.3006     4.9979     1.5459 H       
  40 H40           -4.1176     3.0635     1.1241 H       
  41 H41           -2.7715     3.6522     2.1416 H       
  42 H42           -1.6599     6.0283     0.7571 H       
  43 H43           -2.1875     6.0918    -0.9582 H       
  44 H44           -5.8530     7.6761     1.2824 H       
  45 H45           -7.1837     9.5756     2.0706 H       
  46 H46           -7.1117    11.8707     3.0126 H       
  47 H47           -2.3329    12.6113     1.9031 H       
  48 H48           -2.6834    12.7327     3.6439 H       
  49 H49           -1.8128    11.3165     3.0080 H       
  50 H50            3.9053     2.3805     0.9857 H       
  51 H51            4.3387     1.6192    -0.5638 H       
  52 H52            3.4305     3.1500    -0.5476 H       
@<TRIPOS>BOND
   1    1    2 ar
   2    1    3 ar
   3    1    7 1
   4    2    4 ar
   5    2   29 1
   6    3    6 ar
   7    4    5 ar
   8    5    6 ar
   9    5   30 1
  10    6   28 1
  11    7    8 2
  12    7    9 am
  13    9   10 1
  14    9   31 1
  15   10   11 1
  16   10   16 1
  17   10   17 1
  18   11   12 1
  19   11   32 1
  20   11   33 1
  21   12   13 1
  22   12   34 1
  23   12   35 1
  24   13   14 1
  25   13   36 1
  26   13   37 1
  27   14   15 1
  28   14   17 1
  29   14   18 1
  30   15   16 1
  31   15   38 1
  32   15   39 1
  33   16   40 1
  34   16   41 1
  35   17   42 1
  36   17   43 1
  37   18   19 am
  38   18   20 2
  39   19   23 1
  40   19   44 1
  41   21   22 ar
  42   21   26 ar
  43   21   27 1
  44   22   23 ar
  45   23   24 ar
  46   24   25 ar
  47   24   45 1
  48   25   26 ar
  49   25   46 1
  50   27   47 1
  51   27   48 1
  52   27   49 1
  53   28   50 1
  54   28   51 1
  55   28   52 1

#	End of record

