#	Name: ASD01410914
#	Creating user name:	WinNT
#	Creation time:	15. 06. 2019 19:18

#	Modifying user name:	WinNT
#	Modification time:	15. 06. 2019 19:18

#	Program:	/corina/corina34_cracker 3.40 0067  02.08.2006

@<TRIPOS>MOLECULE
ASD01410914
  68   69    0    0    0
SMALL
NO_CHARGES


@<TRIPOS>ATOM
   1 S1             0.4572     2.1473    -0.2748 S.3     
   2 C2             0.0850     0.4427    -0.0588 C.2     
   3 C3             1.2505    -0.2878    -0.0517 C.2     
   4 C4             2.3913     0.4614    -0.2098 C.2     
   5 C5             2.1795     1.8027    -0.3472 C.2     
   6 C6             3.2075     2.7836    -0.5245 C.1     
   7 C7             4.0504     3.5878    -0.6699 C.1     
   8 C8             5.1072     4.5962    -0.8522 C.3     
   9 C9             6.4732     3.9071    -0.8626 C.3     
  10 C10            4.8933     5.3247    -2.1805 C.3     
  11 C11           -1.2145    -0.0954     0.0862 C.2     
  12 N12            1.2724    -1.6745     0.1039 N.am    
  13 O13           -2.2793     0.7287     0.1836 O.3     
  14 O14           -1.3731    -1.3017     0.1231 O.2     
  15 C15            1.2448    -2.2616     1.4458 C.3     
  16 C16            1.3190    -2.4736    -0.9804 C.2     
  17 C17            1.2541    -3.9703    -0.8168 C.3     
  18 O18            1.4131    -1.9882    -2.0879 O.2     
  19 C19            2.6484    -2.3400     1.9888 C.2     
  20 C20            0.9961    -4.6213    -2.1771 C.3     
  21 C21            2.1313    -4.2621    -3.1379 C.3     
  22 C22            3.4585    -4.7713    -2.5723 C.3     
  23 C23            3.7165    -4.1203    -1.2120 C.3     
  24 C24            2.5813    -4.4795    -0.2512 C.3     
  25 C25            4.5937    -4.4121    -3.5331 C.3     
  26 N26            2.8705    -2.8684     3.2086 N.am    
  27 O27            3.5781    -1.9276     1.3281 O.2     
  28 C28            1.7475    -3.3666     4.0066 C.3     
  29 C29            5.0535     5.6048     0.2971 C.3     
  30 C30            1.5133    -4.8451     3.6905 C.3     
  31 C31            4.2350    -2.9447     3.7364 C.3     
  32 C32            4.5531    -1.6661     4.5141 C.3     
  33 H33            3.3784     0.0233    -0.2238 H       
  34 H34            6.5115     3.1886    -1.6813 H       
  35 H35            7.2558     4.6538    -0.9975 H       
  36 H36            6.6256     3.3881     0.0837 H       
  37 H37            3.9202     5.8156    -2.1731 H       
  38 H38            5.6759     6.0714    -2.3154 H       
  39 H39            4.9316     4.6062    -2.9992 H       
  40 H40           -3.1247     0.2693     0.2797 H       
  41 H41            0.6356    -1.6398     2.1019 H       
  42 H42            0.8182    -3.2633     1.3954 H       
  43 H43            0.4453    -4.2262    -0.1323 H       
  44 H44            0.9491    -5.7039    -2.0588 H       
  45 H45            0.0505    -4.2585    -2.5801 H       
  46 H46            1.9475    -4.7259    -4.1071 H       
  47 H47            2.1782    -3.1796    -3.2563 H       
  48 H48            3.4116    -5.8539    -2.4540 H       
  49 H49            4.6621    -4.4831    -0.8090 H       
  50 H50            3.7635    -3.0377    -1.3304 H       
  51 H51            2.7651    -4.0157     0.7179 H       
  52 H52            2.5344    -5.5620    -0.1328 H       
  53 H53            4.6407    -3.3296    -3.6515 H       
  54 H54            5.5393    -4.7749    -3.1302 H       
  55 H55            4.4099    -4.8759    -4.5023 H       
  56 H56            1.9763    -3.2534     5.0663 H       
  57 H57            0.8498    -2.7970     3.7660 H       
  58 H58            5.2058     5.0857     1.2434 H       
  59 H59            5.8360     6.3514     0.1621 H       
  60 H60            4.0803     6.0956     0.3045 H       
  61 H61            1.2845    -4.9583     2.6308 H       
  62 H62            2.4110    -5.4147     3.9311 H       
  63 H63            0.6778    -5.2158     4.2842 H       
  64 H64            4.3200    -3.8047     4.4007 H       
  65 H65            4.9384    -3.0523     2.9108 H       
  66 H66            4.4681    -0.8061     3.8499 H       
  67 H67            3.8496    -1.5584     5.3398 H       
  68 H68            5.5683    -1.7228     4.9069 H       
@<TRIPOS>BOND
   1    1    2 1
   2    1    5 1
   3    2    3 2
   4    2   11 1
   5    3    4 1
   6    3   12 1
   7    4    5 2
   8    4   33 1
   9    5    6 1
  10    6    7 3
  11    7    8 1
  12    8    9 1
  13    8   10 1
  14    8   29 1
  15    9   34 1
  16    9   35 1
  17    9   36 1
  18   10   37 1
  19   10   38 1
  20   10   39 1
  21   11   13 1
  22   11   14 2
  23   12   15 1
  24   12   16 am
  25   13   40 1
  26   15   19 1
  27   15   41 1
  28   15   42 1
  29   16   17 1
  30   16   18 2
  31   17   20 1
  32   17   24 1
  33   17   43 1
  34   19   26 am
  35   19   27 2
  36   20   21 1
  37   20   44 1
  38   20   45 1
  39   21   22 1
  40   21   46 1
  41   21   47 1
  42   22   23 1
  43   22   25 1
  44   22   48 1
  45   23   24 1
  46   23   49 1
  47   23   50 1
  48   24   51 1
  49   24   52 1
  50   25   53 1
  51   25   54 1
  52   25   55 1
  53   26   28 1
  54   26   31 1
  55   28   30 1
  56   28   56 1
  57   28   57 1
  58   29   58 1
  59   29   59 1
  60   29   60 1
  61   30   61 1
  62   30   62 1
  63   30   63 1
  64   31   32 1
  65   31   64 1
  66   31   65 1
  67   32   66 1
  68   32   67 1
  69   32   68 1

#	End of record

