#	Name: ASD07930026
#	Creating user name:	WinNT
#	Creation time:	15. 06. 2019 21:11

#	Modifying user name:	WinNT
#	Modification time:	15. 06. 2019 21:11

#	Program:	/corina/corina34_cracker 3.40 0067  02.08.2006

@<TRIPOS>MOLECULE
ASD07930026
  55   59    0    0    0
SMALL
NO_CHARGES


@<TRIPOS>ATOM
   1 C1            -0.0167     1.3807     0.0096 C.2     
   2 N2             0.0021    -0.0041     0.0020 N.am    
   3 N3             1.2023     2.0320     0.0015 N.pl3   
   4 C4             2.2545     1.5040    -0.8785 C.3     
   5 C5             2.4301    -0.0046    -0.6026 C.3     
   6 C6             1.1260    -0.6674    -0.3006 C.2     
   7 C7             3.6038     2.1081    -0.4355 C.3     
   8 N8             4.2432     1.1401     0.4737 N.3     
   9 C9             3.3350    -0.0129     0.6493 C.3     
  10 C10            4.5422     1.7264     1.6920 C.ar    
  11 N11            4.2403     3.0013     1.8871 N.ar    
  12 C12            4.5118     3.5921     3.0392 C.ar    
  13 C13            5.1195     2.8598     4.0480 C.ar    
  14 C14            5.4216     1.5271     3.8095 C.ar    
  15 N15            5.1183     0.9971     2.6362 N.ar    
  16 Cl16           5.4943     3.5949     5.5754 Cl      
  17 C17            4.1654     5.0432     3.2526 C.3     
  18 C18            6.0825     0.6921     4.8758 C.3     
  19 C19            1.9625     1.7955    -2.3280 C.ar    
  20 C20            0.9679     3.1867    -4.0036 C.ar    
  21 C21            1.4274     2.3308    -4.9870 C.ar    
  22 C22            2.1489     1.2037    -4.6405 C.ar    
  23 C23            2.4167     0.9363    -3.3109 C.ar    
  24 N24           -1.1378     2.0425     0.0186 N.2     
  25 C25           -1.2164    -0.7493     0.3279 C.3     
  26 O26            1.0819    -1.8787    -0.3312 O.2     
  27 C27            1.2357     2.9192    -2.6741 C.ar    
  28 C28            5.3328    -0.5473     5.3683 C.3     
  29 C29            6.5686    -0.7036     4.4800 C.3     
  30 C30            2.7515     5.1509     3.8270 C.3     
  31 H31            1.3581     2.8114     0.5575 H       
  32 H32            2.9183    -0.4925    -1.4462 H       
  33 H33            4.2388     2.2739    -1.3058 H       
  34 H34            3.4343     3.0500     0.0861 H       
  35 H35            2.7352     0.1114     1.5509 H       
  36 H36            3.9056    -0.9403     0.6980 H       
  37 H37            4.8757     5.4875     3.9499 H       
  38 H38            4.2120     5.5717     2.3004 H       
  39 H39            6.6758     1.2441     5.6048 H       
  40 H40            0.4042     4.0673    -4.2744 H       
  41 H41            1.2181     2.5397    -6.0257 H       
  42 H42            2.5079     0.5350    -5.4088 H       
  43 H43            2.9812     0.0562    -3.0402 H       
  44 H44           -1.9825     1.5657     0.0200 H       
  45 H45           -2.0230    -0.0493     0.5458 H       
  46 H46           -1.4972    -1.3749    -0.5194 H       
  47 H47           -1.0355    -1.3781     1.1996 H       
  48 H48            0.8767     3.5880    -1.9058 H       
  49 H49            5.4331    -0.8110     6.4212 H       
  50 H50            4.3615    -0.7588     4.9211 H       
  51 H51            6.4105    -1.0178     3.4484 H       
  52 H52            7.4821    -1.0699     4.9485 H       
  53 H53            2.0412     4.7065     3.1297 H       
  54 H54            2.7049     4.6224     4.7792 H       
  55 H55            2.5009     6.2004     3.9813 H       
@<TRIPOS>BOND
   1    1    2 1
   2    1    3 1
   3    1   24 2
   4    2   25 1
   5    2    6 am
   6    3    4 1
   7    3   31 1
   8    4    7 1
   9    4   19 1
  10    4    5 1
  11    5    6 1
  12    5    9 1
  13    5   32 1
  14    6   26 2
  15    7    8 1
  16    7   33 1
  17    7   34 1
  18    8    9 1
  19    8   10 1
  20    9   35 1
  21    9   36 1
  22   10   11 ar
  23   10   15 ar
  24   11   12 ar
  25   12   13 ar
  26   12   17 1
  27   13   14 ar
  28   13   16 1
  29   14   15 ar
  30   14   18 1
  31   17   30 1
  32   17   37 1
  33   17   38 1
  34   18   28 1
  35   18   29 1
  36   18   39 1
  37   19   27 ar
  38   19   23 ar
  39   20   21 ar
  40   20   27 ar
  41   20   40 1
  42   21   22 ar
  43   21   41 1
  44   22   23 ar
  45   22   42 1
  46   23   43 1
  47   24   44 1
  48   25   45 1
  49   25   46 1
  50   25   47 1
  51   27   48 1
  52   28   29 1
  53   28   49 1
  54   28   50 1
  55   29   51 1
  56   29   52 1
  57   30   53 1
  58   30   54 1
  59   30   55 1

#	End of record

