#	Name: ASD01816245
#	Creating user name:	WinNT
#	Creation time:	15. 06. 2019 19:34

#	Modifying user name:	WinNT
#	Modification time:	15. 06. 2019 19:34

#	Program:	/corina/corina34_cracker 3.40 0067  02.08.2006

@<TRIPOS>MOLECULE
ASD01816245
  54   59    0    0    0
SMALL
NO_CHARGES


@<TRIPOS>ATOM
   1 C1            -0.7134     0.3038     0.4491 C.ar    
   2 C2            -0.3509    -1.0326     0.4034 C.ar    
   3 C3             0.9718    -1.3979     0.2619 C.ar    
   4 C4             1.9572    -0.4220     0.1640 C.ar    
   5 C5             1.5864     0.9323     0.2106 C.ar    
   6 C6             0.2492     1.2878     0.3531 C.ar    
   7 N7             3.2864    -0.7818     0.0228 N.pl3   
   8 C8             4.2803     0.1156    -0.0765 C.2     
   9 C9             4.0391     1.4666    -0.0439 C.2     
  10 C10            2.6479     1.9515     0.1049 C.2     
  11 C11            4.8563     2.6734    -0.1234 C.2     
  12 N12            4.0008     3.7141    -0.0283 N.am    
  13 N13            2.6889     3.2529     0.1072 N.2     
  14 C14            4.3754     5.0634    -0.0605 C.ar    
  15 C15            4.0033     5.9150     0.9741 C.ar    
  16 C16            5.1239     5.5526    -1.1227 C.ar    
  17 C17            5.4918     6.8837    -1.1518 C.ar    
  18 C18            5.1163     7.7300    -0.1245 C.ar    
  19 C19            4.3753     7.2466     0.9381 C.ar    
  20 F20            3.2793     5.4425     2.0123 F       
  21 O21            6.0687     2.7305    -0.2496 O.2     
  22 C22            3.6242    -2.2067    -0.0198 C.3     
  23 C23            3.5919    -2.6881    -1.4475 C.ar    
  24 C24            4.7379    -2.6294    -2.2203 C.ar    
  25 C25            4.7148    -3.0682    -3.5281 C.ar    
  26 C26            3.5324    -3.5724    -4.0709 C.ar    
  27 C27            2.3800    -3.6294    -3.2860 C.ar    
  28 C28            2.4177    -3.1922    -1.9779 C.ar    
  29 C29            3.5004    -4.0441    -5.4724 C.2     
  30 C30            3.9881    -4.3662    -7.5868 C.2     
  31 N31            2.9130    -5.0556    -7.3140 N.2     
  32 C32            2.5833    -4.8810    -6.0291 C.2     
  33 N33            4.3891    -3.7180    -6.4717 N.pl3   
  34 C34            5.5512    -2.8344    -6.3490 C.3     
  35 H35           -1.7530     0.5763     0.5557 H       
  36 H36           -1.1112    -1.7959     0.4796 H       
  37 H37            1.2422    -2.4430     0.2275 H       
  38 H38           -0.0342     2.3293     0.3891 H       
  39 H39            5.2962    -0.2347    -0.1844 H       
  40 H40            5.4186     4.8929    -1.9253 H       
  41 H41            6.0740     7.2641    -1.9780 H       
  42 H42            5.4063     8.7700    -0.1501 H       
  43 H43            4.0834     7.9103     1.7386 H       
  44 H44            4.6226    -2.3558     0.3914 H       
  45 H45            2.9006    -2.7694     0.5699 H       
  46 H46            5.6525    -2.2389    -1.7990 H       
  47 H47            5.6099    -3.0211    -4.1306 H       
  48 H48            1.4617    -4.0183    -3.7004 H       
  49 H49            1.5266    -3.2358    -1.3693 H       
  50 H50            4.4772    -4.3214    -8.5486 H       
  51 H51            1.7392    -5.3260    -5.5233 H       
  52 H52            6.3991    -3.4006    -5.9636 H       
  53 H53            5.8019    -2.4258    -7.3279 H       
  54 H54            5.3171    -2.0194    -5.6641 H       
@<TRIPOS>BOND
   1    1    2 ar
   2    1    6 ar
   3    1   35 1
   4    2    3 ar
   5    2   36 1
   6    3    4 ar
   7    3   37 1
   8    4    5 ar
   9    4    7 1
  10    5    6 ar
  11    5   10 1
  12    6   38 1
  13    7    8 1
  14    7   22 1
  15    8    9 2
  16    8   39 1
  17    9   10 1
  18    9   11 1
  19   10   13 2
  20   11   12 am
  21   11   21 2
  22   12   13 1
  23   12   14 1
  24   14   15 ar
  25   14   16 ar
  26   15   20 1
  27   15   19 ar
  28   16   17 ar
  29   16   40 1
  30   17   18 ar
  31   17   41 1
  32   18   19 ar
  33   18   42 1
  34   19   43 1
  35   22   23 1
  36   22   44 1
  37   22   45 1
  38   23   24 ar
  39   23   28 ar
  40   24   25 ar
  41   24   46 1
  42   25   26 ar
  43   25   47 1
  44   26   27 ar
  45   26   29 1
  46   27   28 ar
  47   27   48 1
  48   28   49 1
  49   29   33 1
  50   29   32 2
  51   30   31 2
  52   30   33 1
  53   30   50 1
  54   31   32 1
  55   32   51 1
  56   33   34 1
  57   34   52 1
  58   34   53 1
  59   34   54 1

#	End of record

