#	Name: ASD01812333
#	Creating user name:	WinNT
#	Creation time:	15. 06. 2019 19:28

#	Modifying user name:	WinNT
#	Modification time:	15. 06. 2019 19:28

#	Program:	/corina/corina34_cracker 3.40 0067  02.08.2006

@<TRIPOS>MOLECULE
ASD01812333
  63   67    0    0    0
SMALL
NO_CHARGES


@<TRIPOS>ATOM
   1 C1            -0.0168     1.3897     0.0097 C.ar    
   2 C2             0.0021    -0.0041     0.0020 C.ar    
   3 C3             1.1796    -0.6877    -0.0124 C.ar    
   4 C4             2.3927     0.0187    -0.0202 C.ar    
   5 C5             2.3768     1.4381    -0.0129 C.ar    
   6 C6             1.1385     2.1078     0.0025 C.ar    
   7 C7             3.6297    -0.6529    -0.0346 C.ar    
   8 C8             4.7711     0.0956    -0.0411 C.ar    
   9 C9             4.6871     1.4959    -0.0333 C.ar    
  10 N10            3.5238     2.1168    -0.0202 N.ar    
  11 C11            5.9353     2.2963    -0.0400 C.2     
  12 O12            7.0146     1.7386    -0.0521 O.2     
  13 N13            5.8725     3.6426    -0.0327 N.am    
  14 C14            7.1057     4.4335    -0.0393 C.3     
  15 C15            3.6922    -2.1586    -0.0422 C.3     
  16 C16            6.8345     5.8062     0.5796 C.3     
  17 C17            8.1224     6.6321     0.5727 C.3     
  18 C18            8.6072     6.8088    -0.8677 C.3     
  19 C19            8.8784     5.4361    -1.4865 C.3     
  20 C20            7.5905     4.6102    -1.4796 C.3     
  21 C21            3.5763    -2.6591    -1.4590 C.ar    
  22 C22            4.7113    -2.8422    -2.2337 C.ar    
  23 C23            4.5567    -3.3049    -3.5317 C.ar    
  24 C24            3.2856    -3.5662    -4.0066 C.ar    
  25 N25            2.2279    -3.3799    -3.2411 N.ar    
  26 C26            2.3375    -2.9467    -2.0005 C.ar    
  27 C27            3.1058    -4.0693    -5.4157 C.3     
  28 O28            6.3817     5.6411     1.9249 O.3     
  29 C29            2.3219    -5.3562    -5.3934 C.ar    
  30 C30            0.9422    -5.3263    -5.4743 C.ar    
  31 C31            0.2227    -6.5062    -5.4539 C.ar    
  32 C32            0.8836    -7.7174    -5.3524 C.ar    
  33 C33            2.2644    -7.7467    -5.2715 C.ar    
  34 C34            2.9831    -6.5664    -5.2977 C.ar    
  35 Cl35          -0.0195    -9.1998    -5.3261 Cl      
  36 H36           -0.9643     1.9080     0.0170 H       
  37 H37           -0.9302    -0.5493     0.0080 H       
  38 H38            1.1803    -1.7677    -0.0175 H       
  39 H39            1.1059     3.1873     0.0079 H       
  40 H40            5.7363    -0.3889    -0.0518 H       
  41 H41            5.0108     4.0879    -0.0231 H       
  42 H42            7.8710     3.9180     0.5410 H       
  43 H43            4.6417    -2.4850     0.3819 H       
  44 H44            2.8716    -2.5593     0.5529 H       
  45 H45            6.0692     6.3216    -0.0007 H       
  46 H46            7.9292     7.6101     1.0136 H       
  47 H47            8.8877     6.1167     1.1530 H       
  48 H48            7.8419     7.3243    -1.4480 H       
  49 H49            9.5247     7.3973    -0.8726 H       
  50 H50            9.2238     5.5620    -2.5127 H       
  51 H51            9.6437     4.9207    -0.9062 H       
  52 H52            7.7837     3.6322    -1.9206 H       
  53 H53            6.8252     5.1256    -2.0600 H       
  54 H54            5.6925    -2.6293    -1.8358 H       
  55 H55            5.4189    -3.4588    -4.1637 H       
  56 H56            1.4485    -2.8061    -1.4038 H       
  57 H57            2.5659    -3.3251    -6.0011 H       
  58 H58            4.0826    -4.2467    -5.8656 H       
  59 H59            6.1900     6.4724     2.3801 H       
  60 H60            0.4264    -4.3807    -5.5531 H       
  61 H61           -0.8552    -6.4827    -5.5168 H       
  62 H62            2.7808    -8.6919    -5.1923 H       
  63 H63            4.0610    -6.5892    -5.2345 H       
@<TRIPOS>BOND
   1    1    2 ar
   2    1    6 ar
   3    1   36 1
   4    2    3 ar
   5    2   37 1
   6    3    4 ar
   7    3   38 1
   8    4    5 ar
   9    4    7 ar
  10    5    6 ar
  11    5   10 ar
  12    6   39 1
  13    7    8 ar
  14    7   15 1
  15    8    9 ar
  16    8   40 1
  17    9   10 ar
  18    9   11 1
  19   11   12 2
  20   11   13 am
  21   13   14 1
  22   13   41 1
  23   14   16 1
  24   14   20 1
  25   14   42 1
  26   15   21 1
  27   15   43 1
  28   15   44 1
  29   16   17 1
  30   16   28 1
  31   16   45 1
  32   17   18 1
  33   17   46 1
  34   17   47 1
  35   18   19 1
  36   18   48 1
  37   18   49 1
  38   19   20 1
  39   19   50 1
  40   19   51 1
  41   20   52 1
  42   20   53 1
  43   21   22 ar
  44   21   26 ar
  45   22   23 ar
  46   22   54 1
  47   23   24 ar
  48   23   55 1
  49   24   25 ar
  50   24   27 1
  51   25   26 ar
  52   26   56 1
  53   27   29 1
  54   27   57 1
  55   27   58 1
  56   28   59 1
  57   29   30 ar
  58   29   34 ar
  59   30   31 ar
  60   30   60 1
  61   31   32 ar
  62   31   61 1
  63   32   33 ar
  64   32   35 1
  65   33   34 ar
  66   33   62 1
  67   34   63 1

#	End of record

