#	Name: ASD01150075
#	Creating user name:	WinNT
#	Creation time:	15. 06. 2019 19:03

#	Modifying user name:	WinNT
#	Modification time:	15. 06. 2019 19:03

#	Program:	/corina/corina34_cracker 3.40 0067  02.08.2006

@<TRIPOS>MOLECULE
ASD01150075
  38   38    0    0    0
SMALL
NO_CHARGES


@<TRIPOS>ATOM
   1 C1            -0.0168     1.3845     0.0097 C.2     
   2 C2             0.0021    -0.0041     0.0020 C.2     
   3 N3            -1.2696    -0.4207     0.0124 N.2     
   4 C4            -2.0752     0.6089     0.0259 C.2     
   5 N5            -1.3581     1.7463     0.0305 N.pl3   
   6 C6            -1.8911     3.1108     0.0454 C.3     
   7 C7            -3.5802     0.5323     0.0397 C.3     
   8 C8            -4.0759     0.4988     1.4868 C.3     
   9 C9             1.0996     2.2517     0.0037 C.2     
  10 O10            0.9155     3.5890     0.0131 O.3     
  11 N11            1.1306    -0.8103    -0.0139 N.pl3   
  12 O12            2.2269     1.7926    -0.0100 O.2     
  13 C13            0.9891    -2.2684    -0.0203 C.3     
  14 C14            2.0883     4.4054     0.0062 C.3     
  15 C15            2.3756    -2.9153    -0.0380 C.3     
  16 C16            2.2278    -4.4381    -0.0447 C.3     
  17 C17           -2.0669     3.5739     1.4930 C.3     
  18 H18           -1.1978     3.7773    -0.4676 H       
  19 H19           -2.8557     3.1297    -0.4618 H       
  20 H20           -3.9930     1.4055    -0.4656 H       
  21 H21           -3.9027    -0.3722    -0.4759 H       
  22 H22           -5.1645     0.4434     1.4967 H       
  23 H23           -3.6631    -0.3743     1.9921 H       
  24 H24           -3.7534     1.4033     2.0024 H       
  25 H25            2.0135    -0.4086    -0.0209 H       
  26 H26            0.4518    -2.5852     0.8736 H       
  27 H27            0.4335    -2.5757    -0.9062 H       
  28 H28            1.7994     5.4564     0.0151 H       
  29 H29            2.6887     4.1862     0.8891 H       
  30 H30            2.6713     4.1963    -0.8907 H       
  31 H31            2.9129    -2.5985    -0.9319 H       
  32 H32            2.9312    -2.6080     0.8479 H       
  33 H33            1.6905    -4.7549     0.8492 H       
  34 H34            1.6721    -4.7454    -0.9306 H       
  35 H35            3.2155    -4.8989    -0.0573 H       
  36 H36           -2.7602     2.9074     2.0061 H       
  37 H37           -1.1023     3.5550     2.0002 H       
  38 H38           -2.4634     4.5891     1.5041 H       
@<TRIPOS>BOND
   1    1    2 2
   2    1    9 1
   3    1    5 1
   4    2    3 1
   5    2   11 1
   6    3    4 2
   7    4    5 1
   8    4    7 1
   9    5    6 1
  10    6   17 1
  11    6   18 1
  12    6   19 1
  13    7    8 1
  14    7   20 1
  15    7   21 1
  16    8   22 1
  17    8   23 1
  18    8   24 1
  19    9   10 1
  20    9   12 2
  21   10   14 1
  22   11   13 1
  23   11   25 1
  24   13   15 1
  25   13   26 1
  26   13   27 1
  27   14   28 1
  28   14   29 1
  29   14   30 1
  30   15   16 1
  31   15   31 1
  32   15   32 1
  33   16   33 1
  34   16   34 1
  35   16   35 1
  36   17   36 1
  37   17   37 1
  38   17   38 1

#	End of record

