#	Name: ASD00069236
#	Creating user name:	WinNT
#	Creation time:	15. 06. 2019 18:29

#	Modifying user name:	WinNT
#	Modification time:	15. 06. 2019 18:29

#	Program:	/corina/corina34_cracker 3.40 0067  02.08.2006

@<TRIPOS>MOLECULE
ASD00069236
  77   79    0    0    0
SMALL
NO_CHARGES


@<TRIPOS>ATOM
   1 C1             5.5080    -0.3994    -2.0133 C.2     
   2 N2             5.2241    -1.1661    -0.9418 N.am    
   3 O3             4.6083     0.1134    -2.6490 O.2     
   4 O4             6.7887    -0.1970    -2.3759 O.3     
   5 N5             2.3254    -2.9022     0.6486 N.3     
   6 C6             3.7181    -2.6963     0.2311 C.3     
   7 C7             3.8308    -1.3814    -0.5437 C.3     
   8 C8             3.3704    -0.2268     0.3505 C.3     
   9 C9             1.9339    -0.4895     0.8108 C.3     
  10 C10            1.8762    -1.8303     1.5463 C.3     
  11 C11            2.1609    -4.1571     1.2446 C.ar    
  12 C12            2.3228    -5.3179     0.4875 C.ar    
  13 C13            2.1583    -6.5585     1.0845 C.ar    
  14 C14            1.8343    -6.6426     2.4261 C.ar    
  15 C15            1.6735    -5.4925     3.1761 C.ar    
  16 C16            1.8421    -4.2512     2.5908 C.ar    
  17 C17            3.4401    -6.1649    -1.4359 C.2     
  18 O18            3.9528    -7.0253    -0.7457 O.2     
  19 N19            2.6500    -5.2303    -0.8713 N.am    
  20 C20            3.6828    -6.1444    -2.8891 C.2     
  21 N21            3.1892    -5.2703    -3.7407 N.2     
  22 C22            3.6214    -5.5601    -4.9660 C.2     
  23 C23            4.4169    -6.6562    -4.8905 C.2     
  24 N24            4.4635    -7.0261    -3.5825 N.pl3   
  25 C25            5.2072    -8.1575    -3.0232 C.3     
  26 O26            5.9005    -8.8370    -4.0719 O.3     
  27 C27            6.6615    -9.9633    -3.6312 C.3     
  28 C28            7.3572   -10.6098    -4.8308 C.3     
  29 Si29           8.3493   -12.0782    -4.2561 Si      
  30 C30            7.2145   -13.3187    -3.4535 C.3     
  31 C31            9.1963   -12.8654    -5.7168 C.3     
  32 C32            9.6292   -11.5188    -3.0233 C.3     
  33 Br33           3.1974    -4.6069    -6.5432 Br      
  34 C34            7.0199     0.6397    -3.5399 C.3     
  35 C35            6.4384     2.0326    -3.2903 C.3     
  36 C36            8.5241     0.7533    -3.7956 C.3     
  37 C37            6.3410     0.0147    -4.7602 C.3     
  38 H38            5.9423    -1.5754    -0.4344 H       
  39 H39            4.3590    -2.6550     1.1118 H       
  40 H40            4.0316    -3.5221    -0.4076 H       
  41 H41            3.2008    -1.4272    -1.4320 H       
  42 H42            4.0243    -0.1562     1.2197 H       
  43 H43            3.4080     0.7065    -0.2114 H       
  44 H44            1.6153     0.3079     1.4822 H       
  45 H45            1.2740    -0.5213    -0.0562 H       
  46 H46            0.8520    -2.0271     1.8628 H       
  47 H47            2.5257    -1.7931     2.4208 H       
  48 H48            2.2828    -7.4591     0.5016 H       
  49 H49            1.7062    -7.6097     2.8893 H       
  50 H50            1.4197    -5.5639     4.2234 H       
  51 H51            1.7204    -3.3549     3.1809 H       
  52 H52            2.3080    -4.4969    -1.4062 H       
  53 H53            4.9214    -7.1411    -5.7132 H       
  54 H54            5.9259    -7.7928    -2.2893 H       
  55 H55            4.5131    -8.8459    -2.5410 H       
  56 H56            7.4104    -9.6360    -2.9099 H       
  57 H57            5.9976   -10.6891    -3.1616 H       
  58 H58            6.6083   -10.9371    -5.5520 H       
  59 H59            8.0211    -9.8840    -5.3003 H       
  60 H60            6.4657   -13.6460    -4.1748 H       
  61 H61            7.7950   -14.1778    -3.1173 H       
  62 H62            6.7190   -12.8581    -2.5989 H       
  63 H63            9.8603   -12.1396    -6.1864 H       
  64 H64            9.7768   -13.7245    -5.3806 H       
  65 H65            8.4475   -13.1927    -6.4381 H       
  66 H66            9.1336   -11.0582    -2.1687 H       
  67 H67           10.2097   -12.3780    -2.6871 H       
  68 H68           10.2931   -10.7930    -3.4929 H       
  69 H69            6.9221     2.4779    -2.4209 H       
  70 H70            6.6119     2.6607    -4.1641 H       
  71 H71            5.3667     1.9517    -3.1081 H       
  72 H72            8.9385    -0.2390    -3.9734 H       
  73 H73            8.6977     1.3814    -4.6693 H       
  74 H74            9.0079     1.1986    -2.9262 H       
  75 H75            5.2694    -0.0663    -4.5781 H       
  76 H76            6.5146     0.6428    -5.6340 H       
  77 H77            6.7553    -0.9777    -4.9380 H       
@<TRIPOS>BOND
   1    1    2 am
   2    1    3 2
   3    1    4 1
   4    2    7 1
   5    2   38 1
   6    4   34 1
   7    5    6 1
   8    5   10 1
   9    5   11 1
  10    6    7 1
  11    6   39 1
  12    6   40 1
  13    7    8 1
  14    7   41 1
  15    8    9 1
  16    8   42 1
  17    8   43 1
  18    9   10 1
  19    9   44 1
  20    9   45 1
  21   10   46 1
  22   10   47 1
  23   11   12 ar
  24   11   16 ar
  25   12   13 ar
  26   12   19 1
  27   13   14 ar
  28   13   48 1
  29   14   15 ar
  30   14   49 1
  31   15   16 ar
  32   15   50 1
  33   16   51 1
  34   17   18 2
  35   17   19 am
  36   17   20 1
  37   19   52 1
  38   20   21 2
  39   20   24 1
  40   21   22 1
  41   22   23 2
  42   22   33 1
  43   23   24 1
  44   23   53 1
  45   24   25 1
  46   25   26 1
  47   25   54 1
  48   25   55 1
  49   26   27 1
  50   27   28 1
  51   27   56 1
  52   27   57 1
  53   28   29 1
  54   28   58 1
  55   28   59 1
  56   29   30 1
  57   29   31 1
  58   29   32 1
  59   30   60 1
  60   30   61 1
  61   30   62 1
  62   31   63 1
  63   31   64 1
  64   31   65 1
  65   32   66 1
  66   32   67 1
  67   32   68 1
  68   34   35 1
  69   34   37 1
  70   34   36 1
  71   35   69 1
  72   35   70 1
  73   35   71 1
  74   36   72 1
  75   36   73 1
  76   36   74 1
  77   37   75 1
  78   37   76 1
  79   37   77 1

#	End of record

