#	Name: ASD07932023
#	Creating user name:	WinNT
#	Creation time:	15. 06. 2019 21:14

#	Modifying user name:	WinNT
#	Modification time:	15. 06. 2019 21:14

#	Program:	/corina/corina34_cracker 3.40 0067  02.08.2006

@<TRIPOS>MOLECULE
ASD07932023
  36   36    0    0    0
SMALL
NO_CHARGES


@<TRIPOS>ATOM
   1 C1            -0.0178     1.4608     0.0101 C.3     
   2 N2             0.0021    -0.0041     0.0020 N.am    
   3 C3             0.1346    -0.7418     1.2608 C.3     
   4 C4             1.3960     1.9824    -0.0006 C.ar    
   5 C5             2.0321     2.2277    -1.2035 C.ar    
   6 C6             3.3280     2.7059    -1.2160 C.ar    
   7 C7             3.9914     2.9399    -0.0203 C.ar    
   8 C8             3.3510     2.6930     1.1854 C.ar    
   9 C9             2.0529     2.2202     1.1925 C.ar    
  10 C10           -1.2448    -0.9101     1.9009 C.3     
  11 C11           -1.1063    -1.6806     3.2155 C.3     
  12 S12           -0.1253    -0.8260    -1.4299 S.o2    
  13 O13           -0.7659    -2.0448    -1.0786 O.2     
  14 O14           -0.7455     0.1000    -2.3115 O.2     
  15 C15            1.5912    -1.1306    -1.9313 C.3     
  16 O16            5.2665     3.4099    -0.0299 O.3     
  17 C17            5.8873     3.6277     1.2387 C.3     
  18 H18           -0.5450     1.8219    -0.8730 H       
  19 H19           -0.5280     1.8123     0.9069 H       
  20 H20            0.5657    -1.7232     1.0631 H       
  21 H21            0.7849    -0.1893     1.9390 H       
  22 H22            1.5154     2.0450    -2.1342 H       
  23 H23            3.8246     2.8970    -2.1559 H       
  24 H24            3.8652     2.8744     2.1176 H       
  25 H25            1.5538     2.0281     2.1308 H       
  26 H26           -1.6758     0.0713     2.0986 H       
  27 H27           -1.8951    -1.4626     1.2227 H       
  28 H28           -0.6753    -2.6620     3.0178 H       
  29 H29           -0.4560    -1.1281     3.8937 H       
  30 H30           -2.0890    -1.8005     3.6716 H       
  31 H31            2.1346    -1.5906    -1.1060 H       
  32 H32            1.6051    -1.7985    -2.7926 H       
  33 H33            2.0653    -0.1856    -2.1966 H       
  34 H34            5.3100     4.3585     1.8050 H       
  35 H35            5.9255     2.6884     1.7905 H       
  36 H36            6.8998     4.0021     1.0882 H       
@<TRIPOS>BOND
   1    1    2 1
   2    1    4 1
   3    1   18 1
   4    1   19 1
   5    2    3 1
   6    2   12 am
   7    3   10 1
   8    3   20 1
   9    3   21 1
  10    4    5 ar
  11    4    9 ar
  12    5    6 ar
  13    5   22 1
  14    6    7 ar
  15    6   23 1
  16    7    8 ar
  17    7   16 1
  18    8    9 ar
  19    8   24 1
  20    9   25 1
  21   10   11 1
  22   10   26 1
  23   10   27 1
  24   11   28 1
  25   11   29 1
  26   11   30 1
  27   12   13 2
  28   12   14 2
  29   12   15 1
  30   15   31 1
  31   15   32 1
  32   15   33 1
  33   16   17 1
  34   17   34 1
  35   17   35 1
  36   17   36 1

#	End of record

