#	Name: ASD00120015
#	Creating user name:	WinNT
#	Creation time:	15. 06. 2019 18:31

#	Modifying user name:	WinNT
#	Modification time:	15. 06. 2019 18:31

#	Program:	/corina/corina34_cracker 3.40 0067  02.08.2006

@<TRIPOS>MOLECULE
ASD00120015
  46   50    0    0    0
SMALL
NO_CHARGES


@<TRIPOS>ATOM
   1 O1             0.0112    -0.0069    -0.0966 O.2     
   2 C2            -0.0111     1.2072    -0.0431 C.2     
   3 N3             1.1392     1.9057     0.0014 N.am    
   4 C4             1.1245     3.3651    -0.0867 C.3     
   5 C5            -0.0317     3.9421     0.7263 C.3     
   6 C6            -1.3278     3.2788     0.3374 C.ar    
   7 C7            -1.3012     1.9290    -0.0327 C.ar    
   8 C8            -2.4785     1.2752    -0.3902 C.ar    
   9 C9            -3.6684     1.9738    -0.3863 C.ar    
  10 C10           -3.6874     3.3055    -0.0244 C.ar    
  11 C11           -2.5184     3.9669     0.3419 C.ar    
  12 C12           -2.6322     5.4066     0.7500 C.3     
  13 C13           -1.3257     5.9956     1.2479 C.3     
  14 C14           -0.1406     5.4456     0.4596 C.3     
  15 C15            2.4146     1.1983     0.1397 C.3     
  16 C16            3.2035     1.7871     1.3128 C.3     
  17 N17            4.4831     2.3167     0.8226 N.3     
  18 C18            4.2695     3.4031    -0.1436 C.3     
  19 C19            3.5107     2.8604    -1.3578 C.3     
  20 C20            3.2373     1.3662    -1.1440 C.3     
  21 C21            4.5786     0.6444    -0.9634 C.3     
  22 C22            5.3077     1.2492     0.2397 C.3     
  23 H23            2.0656     3.7577     0.2985 H       
  24 H24            1.0129     3.6609    -1.1299 H       
  25 H25            0.1547     3.7785     1.7877 H       
  26 H26           -2.4598     0.2317    -0.6681 H       
  27 H27           -4.5859     1.4780    -0.6670 H       
  28 H28           -4.6233     3.8444    -0.0292 H       
  29 H29           -2.9733     5.9871    -0.1072 H       
  30 H30           -3.3765     5.4876     1.5422 H       
  31 H31           -1.3586     7.0801     1.1429 H       
  32 H32           -1.1963     5.7422     2.3001 H       
  33 H33            0.7746     5.9435     0.7800 H       
  34 H34           -0.2990     5.6157    -0.6053 H       
  35 H35            2.2275     0.1397     0.3200 H       
  36 H36            2.6282     2.5920     1.7703 H       
  37 H37            3.3915     1.0084     2.0519 H       
  38 H38            3.6871     4.1967     0.3244 H       
  39 H39            5.2330     3.7993    -0.4642 H       
  40 H40            2.5657     3.3928    -1.4657 H       
  41 H41            4.1133     2.9965    -2.2558 H       
  42 H42            2.6912     0.9595    -1.9951 H       
  43 H43            4.4016    -0.4167    -0.7875 H       
  44 H44            5.1854     0.7716    -1.8598 H       
  45 H45            6.2627     1.6630    -0.0841 H       
  46 H46            5.4812     0.4747     0.9868 H       
@<TRIPOS>BOND
   1    1    2 2
   2    2    3 am
   3    2    7 1
   4    3    4 1
   5    3   15 1
   6    4    5 1
   7    4   23 1
   8    4   24 1
   9    5    6 1
  10    5   14 1
  11    5   25 1
  12    6    7 ar
  13    6   11 ar
  14    7    8 ar
  15    8    9 ar
  16    8   26 1
  17    9   10 ar
  18    9   27 1
  19   10   11 ar
  20   10   28 1
  21   11   12 1
  22   12   13 1
  23   12   29 1
  24   12   30 1
  25   13   14 1
  26   13   31 1
  27   13   32 1
  28   14   33 1
  29   14   34 1
  30   15   16 1
  31   15   20 1
  32   15   35 1
  33   16   17 1
  34   16   36 1
  35   16   37 1
  36   17   18 1
  37   17   22 1
  38   18   19 1
  39   18   38 1
  40   18   39 1
  41   19   20 1
  42   19   40 1
  43   19   41 1
  44   20   21 1
  45   20   42 1
  46   21   22 1
  47   21   43 1
  48   21   44 1
  49   22   45 1
  50   22   46 1

#	End of record

