#	Name: ASD02038692
#	Creating user name:	WinNT
#	Creation time:	15. 06. 2019 20:17

#	Modifying user name:	WinNT
#	Modification time:	15. 06. 2019 20:17

#	Program:	/corina/corina34_cracker 3.40 0067  02.08.2006

@<TRIPOS>MOLECULE
ASD02038692
  43   45    0    0    0
SMALL
NO_CHARGES


@<TRIPOS>ATOM
   1 C1            -0.0025     1.3818    -0.2232 C.ar    
   2 C2             0.0132     0.0009    -0.2370 C.ar    
   3 C3             1.2034    -0.6815    -0.0325 C.ar    
   4 O4             1.2183    -2.0411    -0.0462 O.3     
   5 C5             2.4787    -2.6784     0.1714 C.3     
   6 C6             2.2979    -4.1968     0.1208 C.3     
   7 C7             3.6641    -4.8769     0.2291 C.3     
   8 S8             3.4666    -6.6641     0.0215 S.3     
   9 C9             7.3051    -7.1056     0.4763 C.ar    
  10 C10            1.1732     2.0869    -0.0045 C.ar    
  11 C11            2.3641     1.4033     0.2002 C.ar    
  12 C12            2.3786     0.0225     0.1857 C.ar    
  13 O13            1.4703    -4.6145     1.2083 O.3     
  14 C14            6.9533    -8.4528     0.2931 C.ar    
  15 C15            7.9322    -9.4345     0.3202 C.ar    
  16 C16            9.2514    -9.0842     0.5275 C.ar    
  17 C17            9.6048    -7.7534     0.7097 C.ar    
  18 C18            8.6448    -6.7656     0.6809 C.ar    
  19 Cl19          11.2685    -7.3312     0.9696 Cl      
  20 Cl20          10.4757   -10.3145     0.5611 Cl      
  21 N21            6.1592    -6.3786     0.4010 N.2     
  22 C22            5.1436    -7.1786     0.1871 C.2     
  23 N23            5.5795    -8.4715     0.1121 N.pl3   
  24 N24            1.1580     3.4883     0.0093 N.am    
  25 C25            0.0961     4.1458     0.5158 C.2     
  26 N26            0.1204     5.4896     0.6155 N.am    
  27 O27           -0.8839     3.5265     0.8829 O.2     
  28 H28           -0.9285     1.9130    -0.3869 H       
  29 H29           -0.9014    -0.5477    -0.4068 H       
  30 H30            3.1804    -2.3699    -0.6035 H       
  31 H31            2.8671    -2.3911     1.1485 H       
  32 H32            1.8271    -4.4754    -0.8220 H       
  33 H33            4.3244    -4.4917    -0.5479 H       
  34 H34            4.0962    -4.6705     1.2083 H       
  35 H35            3.2791     1.9513     0.3701 H       
  36 H36            3.3050    -0.5094     0.3449 H       
  37 H37            1.8281    -4.3987     2.0803 H       
  38 H38            7.6631   -10.4710     0.1799 H       
  39 H39            8.9260    -5.7325     0.8228 H       
  40 H40            5.0297    -9.2562    -0.0395 H       
  41 H41            1.9117     3.9850    -0.3458 H       
  42 H42            0.9021     5.9836     0.3227 H       
  43 H43           -0.6439     5.9628     0.9801 H       
@<TRIPOS>BOND
   1    1    2 ar
   2    1   10 ar
   3    1   28 1
   4    2    3 ar
   5    2   29 1
   6    3    4 1
   7    3   12 ar
   8    4    5 1
   9    5    6 1
  10    5   30 1
  11    5   31 1
  12    6    7 1
  13    6   13 1
  14    6   32 1
  15    7    8 1
  16    7   33 1
  17    7   34 1
  18    8   22 1
  19    9   14 ar
  20    9   21 1
  21    9   18 ar
  22   10   11 ar
  23   10   24 1
  24   11   12 ar
  25   11   35 1
  26   12   36 1
  27   13   37 1
  28   14   15 ar
  29   14   23 1
  30   15   16 ar
  31   15   38 1
  32   16   17 ar
  33   16   20 1
  34   17   18 ar
  35   17   19 1
  36   18   39 1
  37   21   22 2
  38   22   23 1
  39   23   40 1
  40   24   25 am
  41   24   41 1
  42   25   26 am
  43   25   27 2
  44   26   42 1
  45   26   43 1

#	End of record

