#	Name: ASD03240542
#	Creating user name:	WinNT
#	Creation time:	15. 06. 2019 20:35

#	Modifying user name:	WinNT
#	Modification time:	15. 06. 2019 20:35

#	Program:	/corina/corina34_cracker 3.40 0067  02.08.2006

@<TRIPOS>MOLECULE
ASD03240542
  67   73    0    0    0
SMALL
NO_CHARGES


@<TRIPOS>ATOM
   1 C1            -0.0166     1.3755     0.0096 C.ar    
   2 C2             0.0021    -0.0041     0.0020 C.ar    
   3 N3             1.1422    -0.6683    -0.0058 N.ar    
   4 C4             2.3145    -0.0481    -0.0058 C.ar    
   5 C5             2.3702     1.3442    -0.0124 C.ar    
   6 C6             1.1860     2.0698     0.0019 C.ar    
   7 N7             3.4819    -0.8058     0.0219 N.pl3   
   8 C8             4.3587    -0.7201     1.0998 C.ar    
   9 C9             4.9953     0.4878     1.4042 C.ar    
  10 C10            4.7646     1.6827     0.5628 C.2     
  11 N11            3.5938     2.0276    -0.0512 N.pl3   
  12 C12            4.6039    -1.8402     1.8830 C.ar    
  13 C13            5.4634    -1.7555     2.9616 C.ar    
  14 C14            6.0849    -0.5578     3.2708 C.ar    
  15 C15            5.8559     0.5635     2.4991 C.ar    
  16 N16            5.6766     2.5924     0.2867 N.2     
  17 C17            5.1466     3.5392    -0.5044 C.2     
  18 C18            3.8216     3.2026    -0.7360 C.2     
  19 C19            2.8490     3.9526    -1.5538 C.ar    
  20 C20            2.7500     5.3407    -1.4295 C.ar    
  21 C21            2.0266     3.2787    -2.4602 C.ar    
  22 C22            1.1201     3.9864    -3.2216 C.ar    
  23 C23            1.0240     5.3605    -3.0894 C.ar    
  24 C24            1.8389     6.0352    -2.1974 C.ar    
  25 C25            5.8498     4.7277    -1.0339 C.ar    
  26 C26            0.0309     6.1266    -3.9249 C.3     
  27 N27           -1.0480     5.2785    -4.4491 N.3     
  28 C28           -0.4699     7.4179    -3.2567 C.3     
  29 C29           -0.3829     8.0761    -4.6438 C.3     
  30 C30            0.6839     7.0219    -4.9912 C.3     
  31 C31            6.8210     5.3670    -0.2594 C.ar    
  32 C32            7.4712     6.4645    -0.7481 C.ar    
  33 C33            7.1645     6.9479    -2.0237 C.ar    
  34 C34            6.1925     6.3077    -2.7983 C.ar    
  35 C35            5.5468     5.2071    -2.3107 C.ar    
  36 C36            7.8663     8.1339    -2.5521 C.2     
  37 O37            8.7113     8.6907    -1.8780 O.2     
  38 N38            7.5705     8.5997    -3.7817 N.am    
  39 C39            8.2670     9.7769    -4.3062 C.3     
  40 H40           -0.9556     1.9091     0.0170 H       
  41 H41           -0.9306    -0.5486     0.0028 H       
  42 H42            1.2002     3.1497     0.0064 H       
  43 H43            3.6863    -1.3999    -0.7172 H       
  44 H44            4.1222    -2.7781     1.6492 H       
  45 H45            5.6513    -2.6294     3.5677 H       
  46 H46            6.7512    -0.5005     4.1187 H       
  47 H47            6.3418     1.4968     2.7424 H       
  48 H48            3.3852     5.8685    -0.7335 H       
  49 H49            2.1008     2.2064    -2.5647 H       
  50 H50            0.4840     3.4668    -3.9229 H       
  51 H51            1.7584     7.1078    -2.0994 H       
  52 H52           -0.6751     4.4564    -4.8998 H       
  53 H53           -1.6976     5.0274    -3.7190 H       
  54 H54           -1.4869     7.3441    -2.8715 H       
  55 H55            0.2294     7.8338    -2.5314 H       
  56 H56           -1.2965     7.9805    -5.2306 H       
  57 H57            0.0012     9.0959    -4.6199 H       
  58 H58            1.6992     7.3290    -4.7403 H       
  59 H59            0.5973     6.6305    -6.0048 H       
  60 H60            7.0576     4.9938     0.7260 H       
  61 H61            8.2217     6.9589    -0.1492 H       
  62 H62            5.9550     6.6809    -3.7835 H       
  63 H63            4.7962     4.7123    -2.9091 H       
  64 H64            6.8964     8.1554    -4.3194 H       
  65 H65            8.0848    10.6288    -3.6510 H       
  66 H66            9.3373     9.5757    -4.3513 H       
  67 H67            7.8972    10.0022    -5.3065 H       
@<TRIPOS>BOND
   1    1    2 ar
   2    1    6 ar
   3    1   40 1
   4    2    3 ar
   5    2   41 1
   6    3    4 ar
   7    4    5 ar
   8    4    7 1
   9    5    6 ar
  10    5   11 1
  11    6   42 1
  12    7    8 1
  13    7   43 1
  14    8    9 ar
  15    8   12 ar
  16    9   10 1
  17    9   15 ar
  18   10   11 1
  19   10   16 2
  20   11   18 1
  21   12   13 ar
  22   12   44 1
  23   13   14 ar
  24   13   45 1
  25   14   15 ar
  26   14   46 1
  27   15   47 1
  28   16   17 1
  29   17   18 2
  30   17   25 1
  31   18   19 1
  32   19   20 ar
  33   19   21 ar
  34   20   24 ar
  35   20   48 1
  36   21   22 ar
  37   21   49 1
  38   22   23 ar
  39   22   50 1
  40   23   24 ar
  41   23   26 1
  42   24   51 1
  43   25   31 ar
  44   25   35 ar
  45   26   27 1
  46   26   28 1
  47   26   30 1
  48   27   52 1
  49   27   53 1
  50   28   29 1
  51   28   54 1
  52   28   55 1
  53   29   30 1
  54   29   56 1
  55   29   57 1
  56   30   58 1
  57   30   59 1
  58   31   32 ar
  59   31   60 1
  60   32   33 ar
  61   32   61 1
  62   33   34 ar
  63   33   36 1
  64   34   35 ar
  65   34   62 1
  66   35   63 1
  67   36   37 2
  68   36   38 am
  69   38   39 1
  70   38   64 1
  71   39   65 1
  72   39   66 1
  73   39   67 1

#	End of record

