#	Name: ASD01884793
#	Creating user name:	WinNT
#	Creation time:	15. 06. 2019 19:48

#	Modifying user name:	WinNT
#	Modification time:	15. 06. 2019 19:48

#	Program:	/corina/corina34_cracker 3.40 0067  02.08.2006

@<TRIPOS>MOLECULE
ASD01884793
  48   52    0    0    0
SMALL
NO_CHARGES


@<TRIPOS>ATOM
   1 C1            -0.4386     1.2690     0.2469 C.3     
   2 C2            -0.1568    -0.2335     0.1835 C.3     
   3 H3            -1.0904    -0.7841     0.2990 H       
   4 C4             0.4753    -0.5778    -1.1650 C.3     
   5 N5             1.0568    -1.9155    -1.1860 N.am    
   6 C6             1.7451    -2.4093    -0.1287 C.2     
   7 O7             2.3986    -3.4324    -0.2095 O.2     
   8 C8             1.6594    -1.6412     1.1207 C.2     
   9 C9             2.3539    -1.7459     2.3065 C.2     
  10 C10            1.8666    -0.7331     3.1589 C.2     
  11 N11            0.9327    -0.0634     2.5264 N.2     
  12 N12            0.7657    -0.6039     1.2588 N.pl3   
  13 C13            3.4071    -2.7310     2.6244 C.2     
  14 C14            4.6409    -2.4699     3.1528 C.2     
  15 C15            5.2432    -3.7508     3.2564 C.2     
  16 N16            4.3620    -4.6099     2.8052 N.2     
  17 O17            3.3412    -4.0642     2.4570 O.3     
  18 C18            6.6012    -4.0567     3.7725 C.ar    
  19 C19            7.1061    -5.3580     3.7144 C.ar    
  20 C20            8.3783    -5.5915     4.2086 C.ar    
  21 C21            9.1015    -4.5391     4.7388 C.ar    
  22 N22            8.5977    -3.3206     4.7805 N.ar    
  23 C23            7.3947    -3.0497     4.3174 C.ar    
  24 C24            0.8995    -2.7086    -2.3266 C.ar    
  25 C25            0.1188    -3.8561    -2.2739 C.ar    
  26 C26           -0.0355    -4.6377    -3.4024 C.ar    
  27 C27            0.5865    -4.2795    -4.5838 C.ar    
  28 C28            1.3658    -3.1368    -4.6402 C.ar    
  29 Cl29           2.1451    -2.6909    -6.1260 Cl      
  30 C30            1.5189    -2.3475    -3.5162 C.ar    
  31 C31            0.4163    -5.1351    -5.8127 C.3     
  32 F32           -0.4070    -6.2253    -5.5115 F       
  33 F33           -0.1691    -4.3762    -6.8318 F       
  34 F34            1.6669    -5.5979    -6.2356 F       
  35 H35            0.4954     1.8190     0.1313 H       
  36 H36           -1.1240     1.5443    -0.5547 H       
  37 H37           -0.8878     1.5141     1.2093 H       
  38 H38           -0.2893    -0.5138    -1.9391 H       
  39 H39            1.2570     0.1497    -1.3837 H       
  40 H40            2.2060    -0.5410     4.1660 H       
  41 H41            5.0593    -1.5127     3.4270 H       
  42 H42            6.5189    -6.1615     3.2950 H       
  43 H43            8.8009    -6.5850     4.1804 H       
  44 H44           10.0941    -4.7175     5.1252 H       
  45 H45            7.0185    -2.0384     4.3644 H       
  46 H46           -0.3671    -4.1373    -1.3513 H       
  47 H47           -0.6426    -5.5300    -3.3615 H       
  48 H48            2.1233    -1.4536    -3.5615 H       
@<TRIPOS>BOND
   1    1    2 1
   2    1   35 1
   3    1   36 1
   4    1   37 1
   5    2    3 1
   6    2   12 1
   7    2    4 1
   8    4    5 1
   9    4   38 1
  10    4   39 1
  11    5    6 am
  12    5   24 1
  13    6    7 2
  14    6    8 1
  15    8   12 1
  16    8    9 2
  17    9   10 1
  18    9   13 1
  19   10   11 2
  20   10   40 1
  21   11   12 1
  22   13   17 1
  23   13   14 2
  24   14   15 1
  25   14   41 1
  26   15   16 2
  27   15   18 1
  28   16   17 1
  29   18   23 ar
  30   18   19 ar
  31   19   20 ar
  32   19   42 1
  33   20   21 ar
  34   20   43 1
  35   21   22 ar
  36   21   44 1
  37   22   23 ar
  38   23   45 1
  39   24   30 ar
  40   24   25 ar
  41   25   26 ar
  42   25   46 1
  43   26   27 ar
  44   26   47 1
  45   27   28 ar
  46   27   31 1
  47   28   29 1
  48   28   30 ar
  49   30   48 1
  50   31   32 1
  51   31   33 1
  52   31   34 1

#	End of record

