#	Name: ASD03090516
#	Creating user name:	WinNT
#	Creation time:	15. 06. 2019 20:28

#	Modifying user name:	WinNT
#	Modification time:	15. 06. 2019 20:28

#	Program:	/corina/corina34_cracker 3.40 0067  02.08.2006

@<TRIPOS>MOLECULE
ASD03090516
  38   40    0    0    0
SMALL
NO_CHARGES


@<TRIPOS>ATOM
   1 C1            -0.0168     1.3889     0.0097 C.ar    
   2 C2             0.0021    -0.0041     0.0020 C.ar    
   3 C3             1.2225    -0.6606    -0.0132 C.ar    
   4 C4             2.3820     0.0991    -0.0202 C.ar    
   5 C5             2.2883     1.4815    -0.0119 C.ar    
   6 N6             1.1168     2.0790     0.0026 N.ar    
   7 C7            -1.3134     2.1059     0.0197 C.2     
   8 O8            -2.3544     1.4791     0.0212 O.2     
   9 N9            -1.3382     3.4534     0.0271 N.am    
  10 C10            3.7312    -0.5720    -0.0363 C.3     
  11 F11            4.1364    -0.7730    -1.3602 F       
  12 F12            4.6636     0.2397     0.6186 F       
  13 F13            3.6462    -1.8058     0.6178 F       
  14 C14           -2.6202     4.1624     0.0371 C.3     
  15 N15           -1.6970     9.7141    -0.2121 N.pl3   
  16 C16           -1.6751     9.8870    -1.5692 C.2     
  17 C17           -1.8741     8.7101    -2.1836 C.2     
  18 C18           -2.0368     7.7012    -1.1341 C.ar    
  19 C19           -2.2662     6.3236    -1.1393 C.ar    
  20 C20           -2.3721     5.6489     0.0440 C.ar    
  21 C21           -2.2536     6.3215     1.2526 C.ar    
  22 C22           -2.0275     7.6808     1.2811 C.ar    
  23 C23           -1.9163     8.3880     0.0873 C.ar    
  24 Br24          -1.8697     8.5820     2.9361 Br      
  25 C25           -1.4602    11.2036    -2.2702 C.3     
  26 F26           -1.2871    12.2153    -1.3197 F       
  27 F27           -0.3202    11.1217    -3.0770 F       
  28 F28           -2.5739    11.4959    -3.0649 F       
  29 H29           -0.9212    -0.5643     0.0082 H       
  30 H30            1.2691    -1.7396    -0.0191 H       
  31 H31            3.1896     2.0764    -0.0174 H       
  32 H32           -0.5072     3.9538     0.0259 H       
  33 H33           -3.1910     3.8935    -0.8517 H       
  34 H34           -3.1826     3.8838     0.9282 H       
  35 H35           -1.5725    10.4198     0.4416 H       
  36 H36           -1.9082     8.5396    -3.2495 H       
  37 H37           -2.3601     5.7935    -2.0755 H       
  38 H38           -2.3396     5.7742     2.1797 H       
@<TRIPOS>BOND
   1    1    2 ar
   2    1    6 ar
   3    1    7 1
   4    2    3 ar
   5    2   29 1
   6    3    4 ar
   7    3   30 1
   8    4    5 ar
   9    4   10 1
  10    5    6 ar
  11    5   31 1
  12    7    8 2
  13    7    9 am
  14    9   14 1
  15    9   32 1
  16   10   11 1
  17   10   12 1
  18   10   13 1
  19   14   20 1
  20   14   33 1
  21   14   34 1
  22   15   16 1
  23   15   23 1
  24   15   35 1
  25   16   17 2
  26   16   25 1
  27   17   18 1
  28   17   36 1
  29   18   19 ar
  30   18   23 ar
  31   19   20 ar
  32   19   37 1
  33   20   21 ar
  34   21   22 ar
  35   21   38 1
  36   22   23 ar
  37   22   24 1
  38   25   26 1
  39   25   27 1
  40   25   28 1

#	End of record

