#	Name: ASD01911790
#	Creating user name:	WinNT
#	Creation time:	15. 06. 2019 19:58

#	Modifying user name:	WinNT
#	Modification time:	15. 06. 2019 19:58

#	Program:	/corina/corina34_cracker 3.40 0067  02.08.2006

@<TRIPOS>MOLECULE
ASD01911790
  38   40    0    0    0
SMALL
NO_CHARGES


@<TRIPOS>ATOM
   1 C1            -0.3825     1.5497     0.1089 C.2     
   2 N2            -0.3629     0.2310     0.5176 N.pl3   
   3 C3             0.5970     2.4279     0.6321 C.2     
   4 C4             1.5080     1.9344     1.5091 C.2     
   5 N5             1.4788     0.6457     1.8691 N.2     
   6 C6             0.5883    -0.1829     1.4030 C.2     
   7 C7            -1.3898    -0.4088    -0.1147 C.2     
   8 C8            -2.0241     0.5381    -0.9050 C.2     
   9 N9            -1.3725     1.7177    -0.7413 N.2     
  10 N10           -1.7315    -1.7441     0.0086 N.pl3   
  11 C11           -1.0177    -2.7167    -0.6990 C.ar    
  12 C12           -1.3947    -4.0538    -0.6197 C.ar    
  13 C13            0.0650    -2.3497    -1.4865 C.ar    
  14 C14            0.7684    -3.3127    -2.1844 C.ar    
  15 C15            0.3957    -4.6418    -2.0997 C.ar    
  16 C16           -0.6864    -5.0120    -1.3205 C.ar    
  17 F17           -2.4508    -4.4150     0.1414 F       
  18 I18            1.4663    -6.0971    -3.1603 I       
  19 C19           -3.1881     0.3052    -1.7683 C.2     
  20 N20           -3.7079     1.3199    -2.4871 N.am    
  21 O21           -3.6840    -0.8043    -1.8350 O.2     
  22 O22           -4.8308     1.0952    -3.3199 O.3     
  23 C23           -5.2753     2.2575    -4.0224 C.3     
  24 C24           -6.4864     1.8994    -4.8860 C.3     
  25 O25           -7.5786     1.5261    -4.0435 O.3     
  26 H26            0.6192     3.4673     0.3397 H       
  27 H27            2.2636     2.5877     1.9199 H       
  28 H28            0.6037    -1.2144     1.7226 H       
  29 H29           -2.4660    -2.0055     0.5857 H       
  30 H30            0.3571    -1.3122    -1.5539 H       
  31 H31            1.6105    -3.0270    -2.7973 H       
  32 H32           -0.9750    -6.0507    -1.2564 H       
  33 H33           -3.3127     2.2042    -2.4339 H       
  34 H34           -5.5555     3.0299    -3.3062 H       
  35 H35           -4.4714     2.6268    -4.6591 H       
  36 H36           -6.7707     2.7619    -5.4887 H       
  37 H37           -6.2318     1.0663    -5.5413 H       
  38 H38           -8.3822     1.2856    -4.5247 H       
@<TRIPOS>BOND
   1    1    2 1
   2    1    3 1
   3    1    9 2
   4    2    7 1
   5    2    6 1
   6    3    4 2
   7    3   26 1
   8    4    5 1
   9    4   27 1
  10    5    6 2
  11    6   28 1
  12    7    8 2
  13    7   10 1
  14    8    9 1
  15    8   19 1
  16   10   11 1
  17   10   29 1
  18   11   12 ar
  19   11   13 ar
  20   12   17 1
  21   12   16 ar
  22   13   14 ar
  23   13   30 1
  24   14   15 ar
  25   14   31 1
  26   15   16 ar
  27   15   18 1
  28   16   32 1
  29   19   20 am
  30   19   21 2
  31   20   22 1
  32   20   33 1
  33   22   23 1
  34   23   24 1
  35   23   34 1
  36   23   35 1
  37   24   25 1
  38   24   36 1
  39   24   37 1
  40   25   38 1

#	End of record

