#	Name: ASD01510088
#	Creating user name:	WinNT
#	Creation time:	15. 06. 2019 19:21

#	Modifying user name:	WinNT
#	Modification time:	15. 06. 2019 19:21

#	Program:	/corina/corina34_cracker 3.40 0067  02.08.2006

@<TRIPOS>MOLECULE
ASD01510088
  56   58    0    0    0
SMALL
NO_CHARGES


@<TRIPOS>ATOM
   1 C1            -1.5892     0.9028    -0.5950 C.3     
   2 C2            -0.6911    -0.2899    -0.2608 C.3     
   3 C3            -0.0000    -0.7648    -1.5130 C.2     
   4 O4            -0.2057    -0.2045    -2.5688 O.2     
   5 N5             0.8465    -1.8122    -1.4596 N.am    
   6 C6             1.4127    -2.3148    -2.6363 C.ar    
   7 C7             1.7534    -1.4498    -3.6687 C.ar    
   8 C8             2.3128    -1.9448    -4.8315 C.ar    
   9 C9             2.5354    -3.3005    -4.9718 C.ar    
  10 C10            2.1967    -4.1722    -3.9424 C.ar    
  11 C11            1.6395    -3.6768    -2.7709 C.ar    
  12 S12            2.4799    -5.9019    -4.1220 S.3     
  13 C13            3.1863    -6.0229    -5.7317 C.ar    
  14 C14            4.5668    -5.9416    -5.9144 C.ar    
  15 O15            5.3921    -5.7680    -4.8521 O.3     
  16 C16            6.7931    -5.6948    -5.1241 C.3     
  17 N17            5.0621    -6.0372    -7.1437 N.ar    
  18 C18            4.2635    -6.2071    -8.1863 C.ar    
  19 N19            2.9485    -6.2888    -8.0524 N.ar    
  20 C20            2.3794    -6.2079    -6.8544 C.ar    
  21 O21            1.0318    -6.2930    -6.7261 O.3     
  22 C22            0.2758    -6.4706    -7.9258 C.3     
  23 N23            4.8193    -6.3018    -9.4529 N.3     
  24 C24            3.7775    -6.4872   -10.4727 C.3     
  25 C25            4.4232    -6.5071   -11.8601 C.3     
  26 N26            5.4142    -7.5906   -11.9208 N.3     
  27 C27            6.4561    -7.4052   -10.9010 C.3     
  28 C28            5.8103    -7.3852    -9.5136 C.3     
  29 C29            6.0031    -7.6909   -13.2628 C.3     
  30 H30           -0.9828     1.7109    -1.0041 H       
  31 H31           -2.3357     0.6009    -1.3297 H       
  32 H32           -2.0891     1.2463     0.3107 H       
  33 H33            0.0554     0.0120     0.4739 H       
  34 H34           -1.2975    -1.0980     0.1483 H       
  35 H35            1.0633    -2.2175    -0.6054 H       
  36 H36            1.5807    -0.3890    -3.5624 H       
  37 H37            2.5760    -1.2699    -5.6326 H       
  38 H38            2.9726    -3.6842    -5.8817 H       
  39 H39            1.3754    -4.3512    -1.9698 H       
  40 H40            7.3377    -5.5554    -4.1902 H       
  41 H41            7.1195    -6.6193    -5.6005 H       
  42 H42            6.9907    -4.8540    -5.7889 H       
  43 H43           -0.7853    -6.5230    -7.6822 H       
  44 H44            0.4538    -5.6290    -8.5953 H       
  45 H45            0.5824    -7.3951    -8.4149 H       
  46 H46            3.2616    -7.4314   -10.2980 H       
  47 H47            3.0629    -5.6661   -10.4159 H       
  48 H48            3.6558    -6.6735   -12.6161 H       
  49 H49            4.9160    -5.5528   -12.0456 H       
  50 H50            7.1707    -8.2263   -10.9578 H       
  51 H51            6.9719    -6.4610   -11.0757 H       
  52 H52            6.5777    -7.2188    -8.7576 H       
  53 H53            5.3175    -8.3396    -9.3281 H       
  54 H54            6.4961    -6.7518   -13.5144 H       
  55 H55            6.7330    -8.5003   -13.2798 H       
  56 H56            5.2173    -7.8949   -13.9901 H       
@<TRIPOS>BOND
   1    1    2 1
   2    1   30 1
   3    1   31 1
   4    1   32 1
   5    2    3 1
   6    2   33 1
   7    2   34 1
   8    3    4 2
   9    3    5 am
  10    5    6 1
  11    5   35 1
  12    6    7 ar
  13    6   11 ar
  14    7    8 ar
  15    7   36 1
  16    8    9 ar
  17    8   37 1
  18    9   10 ar
  19    9   38 1
  20   10   11 ar
  21   10   12 1
  22   11   39 1
  23   12   13 1
  24   13   14 ar
  25   13   20 ar
  26   14   15 1
  27   14   17 ar
  28   15   16 1
  29   16   40 1
  30   16   41 1
  31   16   42 1
  32   17   18 ar
  33   18   19 ar
  34   18   23 1
  35   19   20 ar
  36   20   21 1
  37   21   22 1
  38   22   43 1
  39   22   44 1
  40   22   45 1
  41   23   24 1
  42   23   28 1
  43   24   25 1
  44   24   46 1
  45   24   47 1
  46   25   26 1
  47   25   48 1
  48   25   49 1
  49   26   27 1
  50   26   29 1
  51   27   28 1
  52   27   50 1
  53   27   51 1
  54   28   52 1
  55   28   53 1
  56   29   54 1
  57   29   55 1
  58   29   56 1

#	End of record

