#	Name: ASD06600020
#	Creating user name:	WinNT
#	Creation time:	15. 06. 2019 21:06

#	Modifying user name:	WinNT
#	Modification time:	15. 06. 2019 21:06

#	Program:	/corina/corina34_cracker 3.40 0067  02.08.2006

@<TRIPOS>MOLECULE
ASD06600020
 278  280    0    0    0
SMALL
NO_CHARGES


@<TRIPOS>ATOM
   1 C1             0.0257     1.4855    -0.2751 C.2     
   2 O2             0.1357     0.2808    -0.1884 O.2     
   3 N3             2.4459     1.4937    -0.4538 N.am    
   4 C4             1.2536     2.3447    -0.4331 C.3     
   5 C5             1.1630     3.1276    -1.7445 C.3     
   6 C6            -3.5804     1.9389    -0.6663 C.2     
   7 O7            -3.5684     3.1474    -0.7680 O.2     
   8 N8            -1.1950     2.0553    -0.2358 N.am    
   9 C9            -2.3891     1.2195    -0.0882 C.3     
  10 C10           -2.6342     0.9376     1.3955 C.3     
  11 C11           -1.4905     0.0848     1.9483 C.3     
  12 C12           -2.7006     2.2603     2.1617 C.3     
  13 C13           -7.0633     1.0663    -1.3528 C.2     
  14 O14           -6.9407    -0.0382    -0.8671 O.2     
  15 N15           -4.6593     1.2394    -1.0704 N.am    
  16 C16           -5.8531     1.9435    -1.5451 C.3     
  17 C17           -5.6935     2.2739    -3.0304 C.3     
  18 C18           -4.5583     3.2488    -3.2091 C.2     
  19 C19           -3.4891     3.0803    -4.0104 C.2     
  20 N20           -2.7108     4.1977    -3.8724 N.pl3   
  21 C21           -3.3318     5.0108    -2.9909 C.2     
  22 N22           -4.4386     4.4389    -2.6023 N.2     
  23 C23          -10.5281     1.0535    -2.5181 C.2     
  24 O24          -10.3275     1.9596    -3.2989 O.2     
  25 N25           -8.2819     1.5092    -1.7206 N.am    
  26 C26           -9.4584     0.6565    -1.5336 C.3     
  27 C27           -9.9890     0.8247    -0.1085 C.3     
  28 C28          -14.0986     0.3969    -2.9462 C.2     
  29 O29          -14.1844    -0.1502    -1.8672 O.2     
  30 N30          -11.7077     0.4017    -2.5307 N.am    
  31 C31          -12.7477     0.7877    -3.4877 C.3     
  32 C32          -12.5059     0.0738    -4.8191 C.3     
  33 C33          -11.2114     0.5572    -5.4205 C.ar    
  34 C34          -10.0272    -0.0912    -5.1221 C.ar    
  35 C35           -8.8391     0.3503    -5.6718 C.ar    
  36 C36           -8.8350     1.4449    -6.5241 C.ar    
  37 O37           -7.6676     1.8809    -7.0664 O.3     
  38 C38          -10.0246     2.0935    -6.8222 C.ar    
  39 C39          -11.2107     1.6449    -6.2741 C.ar    
  40 C40          -17.4890     0.0877    -4.2777 C.2     
  41 O41          -17.1158     0.2547    -5.4195 O.2     
  42 N42          -15.2116     0.6553    -3.6611 N.am    
  43 C43          -16.5249     0.2754    -3.1347 C.3     
  44 C44          -17.0413     1.3778    -2.2079 C.3     
  45 C45          -16.1296     1.4833    -0.9836 C.3     
  46 C46          -16.6459     2.5856    -0.0568 C.3     
  47 N47          -15.7730     2.6866     1.1154 N.pl3   
  48 C48          -16.0404     3.6149     2.0937 C.2     
  49 N49          -15.2638     3.7048     3.1366 N.2     
  50 N50          -17.1270     4.4484     1.9719 N.pl3   
  51 C51          -21.1115    -0.2291    -4.6525 C.2     
  52 O52          -21.3125     0.0520    -3.4900 O.2     
  53 N53          -18.7660    -0.2659    -4.0310 N.am    
  54 C54          -19.7032    -0.4485    -5.1421 C.3     
  55 C55          -19.5704    -1.8696    -5.6931 C.3     
  56 C56          -18.2000    -2.0494    -6.2939 C.2     
  57 C57          -17.3139    -3.0105    -5.9702 C.2     
  58 N58          -16.2073    -2.8077    -6.7498 N.pl3   
  59 C59          -16.4558    -1.7290    -7.5233 C.2     
  60 N60          -17.6514    -1.2837    -7.2487 N.2     
  61 C61          -24.4789    -0.8791    -5.9178 C.2     
  62 O62          -24.0622    -1.5260    -6.8553 O.2     
  63 N63          -22.1476    -0.3453    -5.5066 N.am    
  64 C64          -23.5166    -0.1321    -5.0307 C.3     
  65 C65          -23.8429     1.3622    -5.0689 C.3     
  66 C66          -22.9484     2.1051    -4.0744 C.3     
  67 C67          -23.2746     3.5994    -4.1126 C.3     
  68 N68          -22.4181     4.3107    -3.1604 N.pl3   
  69 C69          -22.5316     5.6735    -3.0187 C.2     
  70 N70          -23.4013     6.3327    -3.7315 N.2     
  71 N71          -21.7278     6.3410    -2.1251 N.pl3   
  72 C72          -28.0925    -0.8967    -6.4701 C.2     
  73 O73          -28.2598     0.0824    -5.7742 O.2     
  74 N74          -25.8026    -0.8284    -5.6694 N.am    
  75 C75          -26.7381    -1.5547    -6.5318 C.3     
  76 C76          -26.8527    -3.0036    -6.0538 C.3     
  77 C77          -25.5063    -3.7079    -6.2335 C.3     
  78 C78          -25.6209    -5.1567    -5.7554 C.3     
  79 N79          -24.3318    -5.8311    -5.9275 N.pl3   
  80 C80          -24.1919    -7.1497    -5.5642 C.2     
  81 N81          -23.0450    -7.7497    -5.7172 N.2     
  82 N82          -25.2618    -7.8354    -5.0394 N.pl3   
  83 C83          -31.4996    -1.7669    -7.4689 C.2     
  84 O84          -31.1894    -2.9087    -7.7356 O.2     
  85 N85          -29.1177    -1.3964    -7.1881 N.am    
  86 C86          -30.4344    -0.7568    -7.1281 C.3     
  87 C87          -30.4868     0.3976    -8.1309 C.3     
  88 C88          -29.4909     1.4814    -7.7133 C.3     
  89 C89          -29.4524     2.5772    -8.7805 C.3     
  90 C90          -29.9258     2.0861    -6.3769 C.3     
  91 C91          -35.0477    -1.6709    -8.3434 C.2     
  92 O92          -35.0488    -0.4618    -8.4385 O.2     
  93 N93          -32.7968    -1.4015    -7.4772 N.am    
  94 C94          -33.8323    -2.3835    -7.8085 C.3     
  95 C95          -34.2130    -3.1672    -6.5508 C.3     
  96 C96          -33.0118    -3.9892    -6.0790 C.3     
  97 C97          -33.3517    -4.6747    -4.7541 C.3     
  98 C98          -32.6746    -5.0489    -7.1298 C.3     
  99 C99          -38.5378    -2.5340    -9.0044 C.2     
 100 O100         -38.4328    -3.6120    -8.4588 O.2     
 101 N101         -36.1334    -2.3772    -8.7161 N.am    
 102 C102         -37.3149    -1.6844    -9.2360 C.3     
 103 C103         -37.1422    -1.4373   -10.7360 C.3     
 104 O104         -37.1048    -2.6893   -11.4239 O.3     
 105 C105         -41.0830    -3.9103   -10.3067 C.2     
 106 O106         -40.2767    -3.9235   -11.2064 O.2     
 107 N107         -39.7482    -2.0959    -9.4037 N.am    
 108 C108         -40.9371    -2.9218    -9.1785 C.3     
 109 C109         -42.1766    -2.0266    -9.1213 C.3     
 110 C110         -43.4002    -2.8722    -8.7627 C.3     
 111 C111         -44.6155    -1.9602    -8.5831 C.3     
 112 C112         -42.3936    -1.3681   -10.4851 C.3     
 113 O113         -42.1088    -4.7760   -10.3119 O.3     
 114 C114           3.6402     1.9978    -0.0853 C.2     
 115 O115           3.7279     3.1561     0.2635 O.2     
 116 C116          22.0759     0.5747     2.9621 C.3     
 117 C117          20.8308     1.4635     2.9838 C.3     
 118 C118          19.6175     0.6529     2.5237 C.3     
 119 C119          18.3723     1.5417     2.5454 C.3     
 120 C120          17.1590     0.7311     2.0853 C.3     
 121 C121          15.9139     1.6200     2.1070 C.3     
 122 C122          14.7005     0.8094     1.6469 C.3     
 123 C123          13.4554     1.6982     1.6686 C.3     
 124 C124          12.2420     0.8876     1.2086 C.3     
 125 C125          10.9969     1.7765     1.2302 C.3     
 126 C126           9.7836     0.9659     0.7702 C.3     
 127 C127           8.5384     1.8547     0.7918 C.3     
 128 C128           7.3251     1.0441     0.3318 C.3     
 129 C129           6.0800     1.9329     0.3534 C.3     
 130 C130           4.8666     1.1223    -0.1066 C.3     
 131 H131           2.3757     0.5673    -0.7328 H       
 132 H132           1.3193     3.0418     0.4023 H       
 133 H133           0.2759     3.7608    -1.7291 H       
 134 H134           2.0511     3.7491    -1.8588 H       
 135 H135           1.0973     2.4306    -2.5800 H       
 136 H136          -1.2830     3.0188    -0.3051 H       
 137 H137          -2.2413     0.2780    -0.6173 H       
 138 H138          -3.5763     0.4021     1.5128 H       
 139 H139          -0.5682     0.6656     1.9416 H       
 140 H140          -1.7228    -0.2164     2.9698 H       
 141 H141          -1.3658    -0.8023     1.3273 H       
 142 H142          -3.5154     2.8678     1.7679 H       
 143 H143          -2.8752     2.0595     3.2187 H       
 144 H144          -1.7585     2.7958     2.0444 H       
 145 H145          -4.6453     0.2698    -1.0469 H       
 146 H146          -5.9797     2.8664    -0.9792 H       
 147 H147          -5.4785     1.3603    -3.5848 H       
 148 H148          -6.6159     2.7176    -3.4051 H       
 149 H149          -3.2849     2.2272    -4.6404 H       
 150 H150          -1.8701     4.3729    -4.3235 H       
 151 H151          -2.9739     5.9762    -2.6648 H       
 152 H152          -8.3800     2.3926    -2.1091 H       
 153 H153          -9.1820    -0.3850    -1.6978 H       
 154 H154         -10.2654     1.8663     0.0557 H       
 155 H155         -10.8643     0.1903     0.0306 H       
 156 H156          -9.2153     0.5376     0.6036 H       
 157 H157         -11.8682    -0.3229    -1.9062 H       
 158 H158         -12.7165     1.8662    -3.6428 H       
 159 H159         -12.4486    -1.0015    -4.6497 H       
 160 H160         -13.3272     0.2907    -5.5021 H       
 161 H161         -10.0309    -0.9432    -4.4586 H       
 162 H162          -7.9143    -0.1560    -5.4378 H       
 163 H163          -7.4500     1.4697    -7.9141 H       
 164 H164         -10.0239     2.9461    -7.4852 H       
 165 H165         -12.1376     2.1467    -6.5094 H       
 166 H166         -15.1430     1.0929    -4.5241 H       
 167 H167         -16.4369    -0.6568    -2.5768 H       
 168 H168         -17.0451     2.3285    -2.7410 H       
 169 H169         -18.0547     1.1373    -1.8866 H       
 170 H170         -16.1258     0.5325    -0.4505 H       
 171 H171         -15.1162     1.7238    -1.3049 H       
 172 H172         -16.6498     3.5364    -0.5899 H       
 173 H173         -17.6594     2.3451     0.2645 H       
 174 H174         -15.0064     2.0986     1.2014 H       
 175 H175         -15.4525     4.3597     3.8268 H       
 176 H176         -17.7050     4.3815     1.1957 H       
 177 H177         -17.3157     5.1033     2.6621 H       
 178 H178         -19.0645    -0.3996    -3.1178 H       
 179 H179         -19.4766     0.2695    -5.9303 H       
 180 H180         -19.7097    -2.5873    -4.8847 H       
 181 H181         -20.3276    -2.0343    -6.4597 H       
 182 H182         -17.4502    -3.7910    -5.2362 H       
 183 H183         -15.3960    -3.3395    -6.7472 H       
 184 H184         -15.7789    -1.3071    -8.2515 H       
 185 H185         -21.9868    -0.5702    -6.4364 H       
 186 H186         -23.6068    -0.4977    -4.0078 H       
 187 H187         -23.6671     1.7470    -6.0734 H       
 188 H188         -24.8884     1.5129    -4.7999 H       
 189 H189         -23.1242     1.7203    -3.0699 H       
 190 H190         -21.9029     1.9545    -4.3434 H       
 191 H191         -23.0988     3.9842    -5.1171 H       
 192 H192         -24.3201     3.7500    -3.8436 H       
 193 H193         -21.7709     3.8202    -2.6299 H       
 194 H194         -23.4813     7.2942    -3.6315 H       
 195 H195         -21.0806     5.8505    -1.5946 H       
 196 H196         -21.8079     7.3025    -2.0251 H       
 197 H197         -26.1359    -0.3111    -4.9197 H       
 198 H198         -26.3729    -1.5387    -7.5587 H       
 199 H199         -27.1323    -3.0175    -5.0003 H       
 200 H200         -27.6138    -3.5200    -6.6386 H       
 201 H201         -25.2267    -3.6939    -7.2869 H       
 202 H202         -24.7452    -3.1914    -5.6486 H       
 203 H203         -25.9006    -5.1707    -4.7020 H       
 204 H204         -26.3821    -5.6732    -6.3403 H       
 205 H205         -23.5770    -5.3473    -6.2977 H       
 206 H206         -22.9463    -8.6800    -5.4609 H       
 207 H207         -26.1153    -7.3888    -4.9255 H       
 208 H208         -25.1631    -8.7657    -4.7831 H       
 209 H209         -28.9839    -2.1795    -7.7447 H       
 210 H210         -30.6063    -0.3727    -6.1226 H       
 211 H211         -30.2276     0.0288    -9.1233 H       
 212 H212         -31.4928     0.8166    -8.1503 H       
 213 H213         -28.4989     1.0422    -7.6077 H       
 214 H214         -30.4444     3.0164    -8.8861 H       
 215 H215         -28.7429     3.3493    -8.4830 H       
 216 H216         -29.1426     2.1464    -9.7326 H       
 217 H217         -30.9177     2.5254    -6.4825 H       
 218 H218         -29.9532     1.3055    -5.6166 H       
 219 H219         -29.2163     2.8583    -6.0794 H       
 220 H220         -33.0449    -0.4884    -7.2639 H       
 221 H221         -33.4525    -3.0712    -8.5641 H       
 222 H222         -34.5087    -2.4721    -5.7651 H       
 223 H223         -35.0441    -3.8352    -6.7767 H       
 224 H224         -32.1542    -3.3313    -5.9382 H       
 225 H225         -34.2093    -5.3325    -4.8949 H       
 226 H226         -32.4960    -5.2602    -4.4180 H       
 227 H227         -33.5919    -3.9197    -4.0055 H       
 228 H228         -32.4325    -4.5605    -8.0737 H       
 229 H229         -31.8189    -5.6345    -6.7937 H       
 230 H230         -33.5323    -5.7068    -7.2706 H       
 231 H231         -36.1325    -3.3442    -8.6400 H       
 232 H232         -37.4324    -0.7306    -8.7218 H       
 233 H233         -37.9791    -0.8447   -11.1053 H       
 234 H234         -36.2107    -0.8988   -10.9107 H       
 235 H235         -36.9969    -2.6089   -12.3815 H       
 236 H236         -39.8322    -1.2337    -9.8401 H       
 237 H237         -40.8330    -3.4591    -8.2359 H       
 238 H238         -42.0332    -1.2556    -8.3642 H       
 239 H239         -43.5963    -3.5854    -9.5634 H       
 240 H240         -43.2101    -3.4112    -7.8346 H       
 241 H241         -44.4194    -1.2471    -7.7824 H       
 242 H242         -44.8056    -1.4212    -9.5112 H       
 243 H243         -45.4872    -2.5626    -8.3277 H       
 244 H244         -42.5369    -2.1391   -11.2422 H       
 245 H245         -43.2766    -0.7304   -10.4443 H       
 246 H246         -41.5218    -0.7657   -10.7406 H       
 247 H247         -42.1605    -5.3909   -11.0565 H       
 248 H248          22.2451     0.2109     1.9486 H       
 249 H249          22.9403     1.1522     3.2899 H       
 250 H250          21.9295    -0.2723     3.6324 H       
 251 H251          20.6616     1.8273     3.9973 H       
 252 H252          20.9773     2.3105     2.3135 H       
 253 H253          19.7866     0.2891     1.5102 H       
 254 H254          19.4710    -0.1941     3.1940 H       
 255 H255          18.2032     1.9055     3.5589 H       
 256 H256          18.5188     2.3887     1.8751 H       
 257 H257          17.3281     0.3674     1.0718 H       
 258 H258          17.0125    -0.1158     2.7556 H       
 259 H259          15.7447     1.9838     3.1205 H       
 260 H260          16.0603     2.4669     1.4367 H       
 261 H261          14.8697     0.4456     0.6335 H       
 262 H262          14.5540    -0.0376     2.3173 H       
 263 H263          13.2862     2.0620     2.6821 H       
 264 H264          13.6019     2.5452     0.9983 H       
 265 H265          12.4112     0.5238     0.1951 H       
 266 H266          12.0956     0.0407     1.8789 H       
 267 H267          10.8278     2.1402     2.2437 H       
 268 H268          11.1434     2.6234     0.5599 H       
 269 H269           9.9527     0.6021    -0.2433 H       
 270 H270           9.6371     0.1189     1.4405 H       
 271 H271           8.3693     2.2185     1.8053 H       
 272 H272           8.6849     2.7016     0.1215 H       
 273 H273           7.4943     0.6803    -0.6817 H       
 274 H274           7.1786     0.1971     1.0021 H       
 275 H275           5.9108     2.2967     1.3669 H       
 276 H276           6.2264     2.7799    -0.3169 H       
 277 H277           4.7201     0.2754     0.5637 H       
 278 H278           5.0358     0.7586    -1.1201 H       
@<TRIPOS>BOND
   1    1    2 2
   2    1    4 1
   3    1    8 am
   4    3  114 am
   5    3    4 1
   6    3  131 1
   7    4    5 1
   8    4  132 1
   9    5  133 1
  10    5  134 1
  11    5  135 1
  12    6    7 2
  13    6    9 1
  14    6   15 am
  15    8    9 1
  16    8  136 1
  17    9   10 1
  18    9  137 1
  19   10   11 1
  20   10   12 1
  21   10  138 1
  22   11  139 1
  23   11  140 1
  24   11  141 1
  25   12  142 1
  26   12  143 1
  27   12  144 1
  28   13   14 2
  29   13   16 1
  30   13   25 am
  31   15   16 1
  32   15  145 1
  33   16   17 1
  34   16  146 1
  35   17   18 1
  36   17  147 1
  37   17  148 1
  38   18   19 2
  39   18   22 1
  40   19   20 1
  41   19  149 1
  42   20   21 1
  43   20  150 1
  44   21   22 2
  45   21  151 1
  46   23   24 2
  47   23   26 1
  48   23   30 am
  49   25   26 1
  50   25  152 1
  51   26   27 1
  52   26  153 1
  53   27  154 1
  54   27  155 1
  55   27  156 1
  56   28   29 2
  57   28   31 1
  58   28   42 am
  59   30   31 1
  60   30  157 1
  61   31   32 1
  62   31  158 1
  63   32   33 1
  64   32  159 1
  65   32  160 1
  66   33   34 ar
  67   33   39 ar
  68   34   35 ar
  69   34  161 1
  70   35   36 ar
  71   35  162 1
  72   36   37 1
  73   36   38 ar
  74   37  163 1
  75   38   39 ar
  76   38  164 1
  77   39  165 1
  78   40   41 2
  79   40   43 1
  80   40   53 am
  81   42   43 1
  82   42  166 1
  83   43   44 1
  84   43  167 1
  85   44   45 1
  86   44  168 1
  87   44  169 1
  88   45   46 1
  89   45  170 1
  90   45  171 1
  91   46   47 1
  92   46  172 1
  93   46  173 1
  94   47   48 1
  95   47  174 1
  96   48   49 2
  97   48   50 1
  98   49  175 1
  99   50  176 1
 100   50  177 1
 101   51   52 2
 102   51   54 1
 103   51   63 am
 104   53   54 1
 105   53  178 1
 106   54   55 1
 107   54  179 1
 108   55   56 1
 109   55  180 1
 110   55  181 1
 111   56   57 2
 112   56   60 1
 113   57   58 1
 114   57  182 1
 115   58   59 1
 116   58  183 1
 117   59   60 2
 118   59  184 1
 119   61   62 2
 120   61   64 1
 121   61   74 am
 122   63   64 1
 123   63  185 1
 124   64   65 1
 125   64  186 1
 126   65   66 1
 127   65  187 1
 128   65  188 1
 129   66   67 1
 130   66  189 1
 131   66  190 1
 132   67   68 1
 133   67  191 1
 134   67  192 1
 135   68   69 1
 136   68  193 1
 137   69   70 2
 138   69   71 1
 139   70  194 1
 140   71  195 1
 141   71  196 1
 142   72   73 2
 143   72   75 1
 144   72   85 am
 145   74   75 1
 146   74  197 1
 147   75   76 1
 148   75  198 1
 149   76   77 1
 150   76  199 1
 151   76  200 1
 152   77   78 1
 153   77  201 1
 154   77  202 1
 155   78   79 1
 156   78  203 1
 157   78  204 1
 158   79   80 1
 159   79  205 1
 160   80   81 2
 161   80   82 1
 162   81  206 1
 163   82  207 1
 164   82  208 1
 165   83   84 2
 166   83   86 1
 167   83   93 am
 168   85   86 1
 169   85  209 1
 170   86   87 1
 171   86  210 1
 172   87   88 1
 173   87  211 1
 174   87  212 1
 175   88   89 1
 176   88   90 1
 177   88  213 1
 178   89  214 1
 179   89  215 1
 180   89  216 1
 181   90  217 1
 182   90  218 1
 183   90  219 1
 184   91   92 2
 185   91   94 1
 186   91  101 am
 187   93   94 1
 188   93  220 1
 189   94   95 1
 190   94  221 1
 191   95   96 1
 192   95  222 1
 193   95  223 1
 194   96   97 1
 195   96   98 1
 196   96  224 1
 197   97  225 1
 198   97  226 1
 199   97  227 1
 200   98  228 1
 201   98  229 1
 202   98  230 1
 203   99  100 2
 204   99  102 1
 205   99  107 am
 206  101  102 1
 207  101  231 1
 208  102  103 1
 209  102  232 1
 210  103  104 1
 211  103  233 1
 212  103  234 1
 213  104  235 1
 214  105  106 2
 215  105  108 1
 216  105  113 1
 217  107  108 1
 218  107  236 1
 219  108  109 1
 220  108  237 1
 221  109  110 1
 222  109  112 1
 223  109  238 1
 224  110  111 1
 225  110  239 1
 226  110  240 1
 227  111  241 1
 228  111  242 1
 229  111  243 1
 230  112  244 1
 231  112  245 1
 232  112  246 1
 233  113  247 1
 234  114  115 2
 235  114  130 1
 236  116  117 1
 237  116  248 1
 238  116  249 1
 239  116  250 1
 240  117  118 1
 241  117  251 1
 242  117  252 1
 243  118  119 1
 244  118  253 1
 245  118  254 1
 246  119  120 1
 247  119  255 1
 248  119  256 1
 249  120  121 1
 250  120  257 1
 251  120  258 1
 252  121  122 1
 253  121  259 1
 254  121  260 1
 255  122  123 1
 256  122  261 1
 257  122  262 1
 258  123  124 1
 259  123  263 1
 260  123  264 1
 261  124  125 1
 262  124  265 1
 263  124  266 1
 264  125  126 1
 265  125  267 1
 266  125  268 1
 267  126  127 1
 268  126  269 1
 269  126  270 1
 270  127  128 1
 271  127  271 1
 272  127  272 1
 273  128  129 1
 274  128  273 1
 275  128  274 1
 276  129  130 1
 277  129  275 1
 278  129  276 1
 279  130  277 1
 280  130  278 1

#	End of record

