#	Name: ASD00069018
#	Creating user name:	WinNT
#	Creation time:	15. 06. 2019 18:29

#	Modifying user name:	WinNT
#	Modification time:	15. 06. 2019 18:29

#	Program:	/corina/corina34_cracker 3.40 0067  02.08.2006

@<TRIPOS>MOLECULE
ASD00069018
  53   57    0    0    0
SMALL
NO_CHARGES


@<TRIPOS>ATOM
   1 C1            -0.0088     1.3719     0.2510 C.ar    
   2 C2             0.0005    -0.0014     0.0088 C.ar    
   3 C3             1.1921    -0.6585    -0.2317 C.ar    
   4 C4             2.3873     0.0629    -0.2308 C.ar    
   5 C5             2.3680     1.4478     0.0141 C.ar    
   6 C6             1.1541     2.0873     0.2542 C.ar    
   7 C7             3.7942    -0.2993    -0.4421 C.2     
   8 N8             4.5067     0.7977    -0.3247 N.2     
   9 N9             3.6693     1.8825    -0.0465 N.pl3   
  10 C10            4.3133    -1.6500    -0.7331 C.2     
  11 N11            3.5805    -2.7322    -0.8458 N.2     
  12 C12            4.3766    -3.7952    -1.1162 C.ar    
  13 C13            5.6991    -3.3206    -1.1722 C.ar    
  14 N14            5.6322    -1.9615    -0.9319 N.pl3   
  15 C15            4.1247    -5.1546    -1.3286 C.ar    
  16 C16            5.1606    -6.0065    -1.5876 C.ar    
  17 C17            6.4657    -5.5381    -1.6424 C.ar    
  18 C18            6.7382    -4.2019    -1.4363 C.ar    
  19 N19           -1.2032    -0.7179     0.0097 N.am    
  20 C20           -2.3267    -0.1485    -0.4699 C.2     
  21 O21           -2.3152     1.0115    -0.8239 O.2     
  22 C22           -3.5973    -0.9532    -0.5663 C.3     
  23 C23           -4.7153    -0.0775    -1.1386 C.3     
  24 C24           -3.3745    -2.1524    -1.4918 C.3     
  25 C25           -3.0345    -1.6501    -2.8968 C.3     
  26 N26           -4.1349    -0.8182    -3.4002 N.3     
  27 C27           -4.3364     0.3648    -2.5539 C.3     
  28 C28           -3.9965    -1.4471     0.8257 C.3     
  29 C29           -3.9056    -0.4320    -4.7989 C.3     
  30 H30           -0.9464     1.8758     0.4337 H       
  31 H31            1.1988    -1.7222    -0.4185 H       
  32 H32            1.1327     3.1504     0.4429 H       
  33 H33            3.9616     2.7983     0.0829 H       
  34 H34            6.3801    -1.3444    -0.9037 H       
  35 H35            3.1129    -5.5300    -1.2876 H       
  36 H36            4.9619    -7.0554    -1.7511 H       
  37 H37            7.2737    -6.2247    -1.8476 H       
  38 H38            7.7558    -3.8429    -1.4802 H       
  39 H39           -1.2281    -1.6239     0.3554 H       
  40 H40           -5.6435    -0.6480    -1.1719 H       
  41 H41           -4.8496     0.8005    -0.5067 H       
  42 H42           -2.5507    -2.7570    -1.1122 H       
  43 H43           -4.2816    -2.7556    -1.5306 H       
  44 H44           -2.1197    -1.0585    -2.8595 H       
  45 H45           -2.8893    -2.5015    -3.5617 H       
  46 H46           -5.1369     0.9767    -2.9697 H       
  47 H47           -3.4156     0.9469    -2.5182 H       
  48 H48           -4.1574    -0.5921     1.4823 H       
  49 H49           -4.9155    -2.0289     0.7550 H       
  50 H50           -3.2010    -2.0722     1.2314 H       
  51 H51           -3.8339    -1.3276    -5.4160 H       
  52 H52           -4.7354     0.1834    -5.1466 H       
  53 H53           -2.9774     0.1348    -4.8718 H       
@<TRIPOS>BOND
   1    1    2 ar
   2    1    6 ar
   3    1   30 1
   4    2    3 ar
   5    2   19 1
   6    3    4 ar
   7    3   31 1
   8    4    5 ar
   9    4    7 1
  10    5    6 ar
  11    5    9 1
  12    6   32 1
  13    7    8 2
  14    7   10 1
  15    8    9 1
  16    9   33 1
  17   10   11 2
  18   10   14 1
  19   11   12 1
  20   12   13 ar
  21   12   15 ar
  22   13   14 1
  23   13   18 ar
  24   14   34 1
  25   15   16 ar
  26   15   35 1
  27   16   17 ar
  28   16   36 1
  29   17   18 ar
  30   17   37 1
  31   18   38 1
  32   19   20 am
  33   19   39 1
  34   20   21 2
  35   20   22 1
  36   22   23 1
  37   22   24 1
  38   22   28 1
  39   23   27 1
  40   23   40 1
  41   23   41 1
  42   24   25 1
  43   24   42 1
  44   24   43 1
  45   25   26 1
  46   25   44 1
  47   25   45 1
  48   26   27 1
  49   26   29 1
  50   27   46 1
  51   27   47 1
  52   28   48 1
  53   28   49 1
  54   28   50 1
  55   29   51 1
  56   29   52 1
  57   29   53 1

#	End of record

