#	Name: ASD08070155
#	Creating user name:	WinNT
#	Creation time:	15. 06. 2019 21:14

#	Modifying user name:	WinNT
#	Modification time:	15. 06. 2019 21:14

#	Program:	/corina/corina34_cracker 3.40 0067  02.08.2006

@<TRIPOS>MOLECULE
ASD08070155
  39   41    0    0    0
SMALL
NO_CHARGES


@<TRIPOS>ATOM
   1 C1            -0.0370     1.3084    -0.2112 C.ar    
   2 C2             0.0241     0.0040     0.2450 C.ar    
   3 C3             1.2497    -0.6070     0.4513 C.ar    
   4 C4             2.4188     0.0838     0.2023 C.ar    
   5 C5             2.3629     1.4001    -0.2587 C.ar    
   6 C6             1.1243     2.0093    -0.4642 C.ar    
   7 N7             3.5579     3.4531    -0.8522 N.am    
   8 C8             3.6108     2.1462    -0.5271 C.2     
   9 C9             5.3506     3.8170     1.2687 C.ar    
  10 C10            5.3686     4.6851     0.1844 C.ar    
  11 C11            4.7944     4.1924    -1.1181 C.3     
  12 C12            5.8675     4.2061     2.4868 C.ar    
  13 C13            6.4101     5.4697     2.6302 C.ar    
  14 C14            6.4278     6.3336     1.5551 C.ar    
  15 C15            5.9038     5.9451     0.3286 C.ar    
  16 C16            5.9415     6.9439    -0.7983 C.3     
  17 C17            5.7417     6.2456    -2.1419 C.3     
  18 C18            4.4901     5.3649    -2.0483 C.3     
  19 O19            4.6845     1.5809    -0.4546 O.2     
  20 Cl20           1.3160    -2.2442     1.0247 Cl      
  21 C21            3.7520    -0.5815     0.4280 C.3     
  22 H22           -0.9959     1.7778    -0.3740 H       
  23 H23           -0.8879    -0.5401     0.4416 H       
  24 H24            1.0748     3.0275    -0.8211 H       
  25 H25            2.7012     3.9042    -0.9101 H       
  26 H26            4.9244     2.8308     1.1581 H       
  27 H27            5.5131     3.5293    -1.5998 H       
  28 H28            5.8482     3.5262     3.3258 H       
  29 H29            6.8184     5.7794     3.5810 H       
  30 H30            6.8523     7.3203     1.6678 H       
  31 H31            5.1495     7.6787    -0.6539 H       
  32 H32            6.9062     7.4512    -0.7969 H       
  33 H33            5.6085     6.9905    -2.9264 H       
  34 H34            6.6102     5.6265    -2.3665 H       
  35 H35            4.2301     4.9902    -3.0383 H       
  36 H36            3.6609     5.9470    -1.6461 H       
  37 H37            4.1237    -0.9800    -0.5160 H       
  38 H38            4.4609     0.1485     0.8185 H       
  39 H39            3.6356    -1.3944     1.1448 H       
@<TRIPOS>BOND
   1    1    2 ar
   2    1    6 ar
   3    1   22 1
   4    2    3 ar
   5    2   23 1
   6    3    4 ar
   7    3   20 1
   8    4    5 ar
   9    4   21 1
  10    5    6 ar
  11    5    8 1
  12    6   24 1
  13    7    8 am
  14    7   11 1
  15    7   25 1
  16    8   19 2
  17    9   10 ar
  18    9   12 ar
  19    9   26 1
  20   10   11 1
  21   10   15 ar
  22   11   18 1
  23   11   27 1
  24   12   13 ar
  25   12   28 1
  26   13   14 ar
  27   13   29 1
  28   14   15 ar
  29   14   30 1
  30   15   16 1
  31   16   17 1
  32   16   31 1
  33   16   32 1
  34   17   18 1
  35   17   33 1
  36   17   34 1
  37   18   35 1
  38   18   36 1
  39   21   37 1
  40   21   38 1
  41   21   39 1

#	End of record

