#	Name: ASD01912311
#	Creating user name:	WinNT
#	Creation time:	15. 06. 2019 19:59

#	Modifying user name:	WinNT
#	Modification time:	15. 06. 2019 19:59

#	Program:	/corina/corina34_cracker 3.40 0067  02.08.2006

@<TRIPOS>MOLECULE
ASD01912311
  49   51    0    0    0
SMALL
NO_CHARGES


@<TRIPOS>ATOM
   1 C1            -0.0470     1.3904    -0.0695 C.ar    
   2 C2            -0.0304     0.0071    -0.0734 C.ar    
   3 C3             1.1867    -0.6608    -0.0650 C.ar    
   4 C4             2.3506     0.0862    -0.0527 C.ar    
   5 C5             2.2615     1.4809    -0.0494 C.ar    
   6 N6             1.0743     2.0808    -0.0578 N.ar    
   7 C7             3.4566     2.2697    -0.0367 C.1     
   8 C8             4.4364     2.9164    -0.0264 C.1     
   9 C9             5.6315     3.7051    -0.0138 C.2     
  10 N10            5.4109     7.5514    -1.1151 N.am    
  11 C11            6.7202     6.8875    -1.1564 C.3     
  12 C12            6.8027     5.8861     0.0028 C.3     
  13 C13            5.5519     5.0351    -0.0105 C.2     
  14 C14            4.2085     5.7309    -0.0195 C.3     
  15 C15            4.1910     6.7361    -1.1781 C.3     
  16 C16            5.3297     8.8930    -1.0150 C.2     
  17 C17            6.5594     9.6980    -0.8552 C.ar    
  18 C18            6.6895    10.5722     0.2254 C.ar    
  19 C19            7.8394    11.3204     0.3687 C.ar    
  20 C20            8.8627    11.2060    -0.5558 C.ar    
  21 C21            8.7399    10.3419    -1.6292 C.ar    
  22 C22            7.5975     9.5831    -1.7808 C.ar    
  23 O23            4.2456     9.4410    -1.0561 O.2     
  24 N24            5.5958    10.6962     1.2150 N.pl3   
  25 O25            5.5770     9.9740     2.1957 O.2     
  26 O26            4.7145    11.5203     1.0486 O.2     
  27 C27            7.9814    12.2650     1.5343 C.3     
  28 C28           -1.3669     2.1175    -0.0850 C.3     
  29 H29           -0.9564    -0.5485    -0.0827 H       
  30 H30            1.2237    -1.7402    -0.0675 H       
  31 H31            3.3144    -0.4012    -0.0455 H       
  32 H32            6.5974     3.2220    -0.0069 H       
  33 H33            6.8327     6.3600    -2.1036 H       
  34 H34            7.5104     7.6312    -1.0537 H       
  35 H35            7.6799     5.2513    -0.1225 H       
  36 H36            6.8705     6.4241     0.9483 H       
  37 H37            3.4156     4.9962    -0.1591 H       
  38 H38            4.0609     6.2560     0.9242 H       
  39 H39            3.3161     7.3803    -1.0897 H       
  40 H40            4.1583     6.2000    -2.1265 H       
  41 H41            9.7609    11.7941    -0.4391 H       
  42 H42            9.5421    10.2575    -2.3474 H       
  43 H43            7.5051     8.9051    -2.6163 H       
  44 H44            8.4360    11.7398     2.3743 H       
  45 H45            8.6133    13.1052     1.2462 H       
  46 H46            6.9977    12.6333     1.8255 H       
  47 H47           -1.6989     2.2896     0.9388 H       
  48 H48           -1.2489     3.0738    -0.5944 H       
  49 H49           -2.1075     1.5148    -0.6107 H       
@<TRIPOS>BOND
   1    1    2 ar
   2    1    6 ar
   3    1   28 1
   4    2    3 ar
   5    2   29 1
   6    3    4 ar
   7    3   30 1
   8    4    5 ar
   9    4   31 1
  10    5    6 ar
  11    5    7 1
  12    7    8 3
  13    8    9 1
  14    9   13 2
  15    9   32 1
  16   10   11 1
  17   10   15 1
  18   10   16 am
  19   11   12 1
  20   11   33 1
  21   11   34 1
  22   12   13 1
  23   12   35 1
  24   12   36 1
  25   13   14 1
  26   14   15 1
  27   14   37 1
  28   14   38 1
  29   15   39 1
  30   15   40 1
  31   16   17 1
  32   16   23 2
  33   17   18 ar
  34   17   22 ar
  35   18   19 ar
  36   18   24 1
  37   19   20 ar
  38   19   27 1
  39   20   21 ar
  40   20   41 1
  41   21   22 ar
  42   21   42 1
  43   22   43 1
  44   24   25 2
  45   24   26 2
  46   27   44 1
  47   27   45 1
  48   27   46 1
  49   28   47 1
  50   28   48 1
  51   28   49 1

#	End of record

