#	Name: ASD03930171
#	Creating user name:	WinNT
#	Creation time:	15. 06. 2019 20:47

#	Modifying user name:	WinNT
#	Modification time:	15. 06. 2019 20:47

#	Program:	/corina/corina34_cracker 3.40 0067  02.08.2006

@<TRIPOS>MOLECULE
ASD03930171
  24   25    0    0    0
SMALL
NO_CHARGES


@<TRIPOS>ATOM
   1 C1            -0.0168     1.3904     0.0097 C.ar    
   2 C2             0.0021    -0.0041     0.0020 C.ar    
   3 C3             1.2043    -0.6765    -0.0131 C.ar    
   4 C4             2.4023     0.0371    -0.0207 C.ar    
   5 C5             2.3835     1.4314    -0.0125 C.ar    
   6 C6             1.1814     2.1040     0.0021 C.ar    
   7 O7             5.0432    -2.2556    -0.0589 O.3     
   8 N8             3.8610    -1.9847    -0.0459 N.2     
   9 C9             3.6974    -0.6875    -0.0369 C.2     
  10 N10            4.9292    -0.1296    -0.0457 N.2     
  11 C11            5.7700    -1.1337    -0.0596 C.2     
  12 C12            7.2741    -1.0416    -0.0736 C.3     
  13 B13           -1.3870     2.1569     0.0203 Du      
  14 O14           -2.6070     1.4303     0.0221 O.3     
  15 O15           -1.4062     3.5768     0.0281 O.3     
  16 H16           -0.9258    -0.5568     0.0083 H       
  17 H17            1.2190    -1.7564    -0.0187 H       
  18 H18            3.3114     1.9839    -0.0181 H       
  19 H19            1.1669     3.1839     0.0077 H       
  20 H20            7.6995    -2.0451    -0.0839 H       
  21 H21            7.5967    -0.5010    -0.9635 H       
  22 H22            7.6140    -0.5120     0.8163 H       
  23 H23           -3.3969     1.9881     0.0289 H       
  24 H24           -2.2948     3.9581     0.0344 H       
@<TRIPOS>BOND
   1    1    2 ar
   2    1    6 ar
   3    1   13 1
   4    2    3 ar
   5    2   16 1
   6    3    4 ar
   7    3   17 1
   8    4    5 ar
   9    4    9 1
  10    5    6 ar
  11    5   18 1
  12    6   19 1
  13    7    8 1
  14    7   11 1
  15    8    9 2
  16    9   10 1
  17   10   11 2
  18   11   12 1
  19   12   20 1
  20   12   21 1
  21   12   22 1
  22   13   14 1
  23   13   15 1
  24   14   23 1
  25   15   24 1

#	End of record

