#	Name: ASD03330971
#	Creating user name:	WinNT
#	Creation time:	15. 06. 2019 20:38

#	Modifying user name:	WinNT
#	Modification time:	15. 06. 2019 20:38

#	Program:	/corina/corina34_cracker 3.40 0067  02.08.2006

@<TRIPOS>MOLECULE
ASD03330971
  63   66    0    0    0
SMALL
NO_CHARGES


@<TRIPOS>ATOM
   1 N1             0.4011     1.2017    -1.4916 N.pl3   
   2 C2             0.4059    -0.1449    -1.3017 C.2     
   3 C3             1.6130    -1.0407    -1.4003 C.3     
   4 N4             2.7227    -0.4395    -0.6441 N.3     
   5 C5             3.5085     0.4655    -1.4850 C.3     
   6 C6             2.6209     1.1691    -2.5077 C.3     
   7 C7             1.5769     2.0256    -1.7860 C.3     
   8 C8            -0.8862     1.6304    -1.3454 C.2     
   9 N9            -1.6421     0.5961    -1.0593 N.2     
  10 C10           -0.8740    -0.5152    -1.0221 C.2     
  11 C11           -1.3388    -1.8829    -0.7317 C.2     
  12 O12           -0.5472    -2.8063    -0.7281 O.2     
  13 N13           -2.6411    -2.1108    -0.4700 N.am    
  14 C14           -1.3517     3.0269    -1.4853 C.ar    
  15 C15           -2.4851     3.3149    -2.2506 C.ar    
  16 C16           -2.9159     4.6216    -2.3775 C.ar    
  17 C17           -2.2265     5.6448    -1.7484 C.ar    
  18 C18           -1.1001     5.3642    -0.9876 C.ar    
  19 C19           -0.6644     4.0611    -0.8490 C.ar    
  20 F20           -0.4316     6.3671    -0.3773 F       
  21 F21           -2.6516     6.9208    -1.8761 F       
  22 F22           -3.1579     2.3177    -2.8654 F       
  23 C23           -4.6290    -3.4775    -0.0674 C.3     
  24 C24           -3.1032    -3.4707    -0.1813 C.3     
  25 C25           -2.6721    -4.4067    -1.3121 C.3     
  26 O26           -6.7898    -1.9192    -3.2978 O.3     
  27 C27           -5.3646    -1.8271    -3.3724 C.3     
  28 C28           -4.7743    -1.9836    -1.9685 C.3     
  29 N29           -5.2201    -3.2616    -1.3947 N.3     
  30 C30           -6.6877    -3.3216    -1.3340 C.3     
  31 C31           -7.2589    -3.1517    -2.7443 C.3     
  32 C32           -2.4913    -3.9481     1.1372 C.3     
  33 C33            3.5751    -1.4760    -0.0466 C.3     
  34 H34            1.3756    -2.0192    -0.9828 H       
  35 H35            1.9014    -1.1497    -2.4458 H       
  36 H36            3.9899     1.2129    -0.8543 H       
  37 H37            4.2742    -0.1067    -2.0088 H       
  38 H38            3.2356     1.8063    -3.1435 H       
  39 H39            2.1160     0.4241    -3.1227 H       
  40 H40            1.2865     2.8605    -2.4238 H       
  41 H41            1.9978     2.4058    -0.8552 H       
  42 H42           -3.2725    -1.3744    -0.4728 H       
  43 H43           -3.7916     4.8455    -2.9686 H       
  44 H44            0.2097     3.8434    -0.2531 H       
  45 H45           -4.9597    -4.4389     0.3257 H       
  46 H46           -4.9466    -2.6811     0.6057 H       
  47 H47           -1.5860    -4.4994    -1.3130 H       
  48 H48           -3.1204    -5.3888    -1.1617 H       
  49 H49           -3.0027    -3.9989    -2.2674 H       
  50 H50           -4.9821    -2.6174    -4.0183 H       
  51 H51           -5.0835    -0.8557    -3.7792 H       
  52 H52           -3.6860    -1.9712    -2.0278 H       
  53 H53           -5.1144    -1.1628    -1.3370 H       
  54 H54           -6.9962    -4.2859    -0.9302 H       
  55 H55           -7.0584    -2.5222    -0.6924 H       
  56 H56           -8.3477    -3.1383    -2.6968 H       
  57 H57           -6.9314    -3.9805    -3.3719 H       
  58 H58           -2.7984    -3.2813     1.9429 H       
  59 H59           -2.8351    -4.9599     1.3520 H       
  60 H60           -1.4043    -3.9433     1.0561 H       
  61 H61            3.9329    -2.1469    -0.8276 H       
  62 H62            4.4259    -1.0066     0.4472 H       
  63 H63            2.9988    -2.0437     0.6841 H       
@<TRIPOS>BOND
   1    1    2 1
   2    1    7 1
   3    1    8 1
   4    2    3 1
   5    2   10 2
   6    3    4 1
   7    3   34 1
   8    3   35 1
   9    4    5 1
  10    4   33 1
  11    5    6 1
  12    5   36 1
  13    5   37 1
  14    6    7 1
  15    6   38 1
  16    6   39 1
  17    7   40 1
  18    7   41 1
  19    8    9 2
  20    8   14 1
  21    9   10 1
  22   10   11 1
  23   11   12 2
  24   11   13 am
  25   13   24 1
  26   13   42 1
  27   14   15 ar
  28   14   19 ar
  29   15   16 ar
  30   15   22 1
  31   16   17 ar
  32   16   43 1
  33   17   18 ar
  34   17   21 1
  35   18   19 ar
  36   18   20 1
  37   19   44 1
  38   23   24 1
  39   23   29 1
  40   23   45 1
  41   23   46 1
  42   24   25 1
  43   24   32 1
  44   25   47 1
  45   25   48 1
  46   25   49 1
  47   26   27 1
  48   26   31 1
  49   27   28 1
  50   27   50 1
  51   27   51 1
  52   28   29 1
  53   28   52 1
  54   28   53 1
  55   29   30 1
  56   30   31 1
  57   30   54 1
  58   30   55 1
  59   31   56 1
  60   31   57 1
  61   32   58 1
  62   32   59 1
  63   32   60 1
  64   33   61 1
  65   33   62 1
  66   33   63 1

#	End of record

