#	Name: ASD01913870
#	Creating user name:	WinNT
#	Creation time:	15. 06. 2019 20:02

#	Modifying user name:	WinNT
#	Modification time:	15. 06. 2019 20:02

#	Program:	/corina/corina34_cracker 3.40 0067  02.08.2006

@<TRIPOS>MOLECULE
ASD01913870
  40   43    0    0    0
SMALL
NO_CHARGES


@<TRIPOS>ATOM
   1 C1            -0.0227     1.4277    -0.0311 C.ar    
   2 C2            -0.0018    -0.0041    -0.0268 C.1     
   3 C3             0.0154    -1.1780    -0.0232 C.1     
   4 C4             0.0364    -2.6098    -0.0189 C.ar    
   5 C5            -1.1341    -3.3384     0.2412 C.ar    
   6 C6             0.1560    -5.3344    -0.0280 C.ar    
   7 N7             1.2427    -4.6189    -0.2762 N.ar    
   8 C8             1.2209    -3.3022    -0.2792 C.ar    
   9 C9            -1.0633    -4.7169     0.2344 C.ar    
  10 C10            1.1473     2.1463    -0.2911 C.ar    
  11 C11            1.1193     3.5252    -0.2940 C.ar    
  12 C12           -1.2145     2.1132     0.2189 C.ar    
  13 C13           -0.0635     4.1972    -0.0404 C.ar    
  14 C14           -1.2272     3.4923     0.2126 C.ar    
  15 N15            0.2331    -6.7250    -0.0369 N.am    
  16 C16           -0.8147    -7.5613    -0.0322 C.2     
  17 N17           -0.4742    -8.8595    -0.0438 N.am    
  18 C18            0.9854    -8.9637    -0.0585 C.3     
  19 C19            1.4785    -7.5106    -0.0595 C.3     
  20 O20           -1.9686    -7.1785    -0.0186 O.2     
  21 C21            1.7267   -10.0607     0.6933 C.3     
  22 C22            1.7121   -10.0510    -0.8381 C.3     
  23 C23           -1.4098    -9.9868    -0.0414 C.3     
  24 H24           -2.0672    -2.8331     0.4422 H       
  25 H25            2.1276    -2.7527    -0.4853 H       
  26 H26           -1.9444    -5.3098     0.4308 H       
  27 H27            2.0712     1.6231    -0.4888 H       
  28 H28            2.0229     4.0818    -0.4944 H       
  29 H29           -2.1236     1.5645     0.4162 H       
  30 H30           -0.0794     5.2771    -0.0441 H       
  31 H31           -2.1467     4.0235     0.4094 H       
  32 H32            2.0539    -7.3012    -0.9613 H       
  33 H33            2.0717    -7.3060     0.8317 H       
  34 H34            2.6585    -9.7897     1.1898 H       
  35 H35            1.1277   -10.8187     1.1979 H       
  36 H36            1.1034   -10.8027    -1.3406 H       
  37 H37            2.6343    -9.7737    -1.3488 H       
  38 H38           -2.4326    -9.6101    -0.0290 H       
  39 H39           -1.2553   -10.5892    -0.9365 H       
  40 H40           -1.2377   -10.5999     0.8433 H       
@<TRIPOS>BOND
   1    1    2 1
   2    1   10 ar
   3    1   12 ar
   4    2    3 3
   5    3    4 1
   6    4    5 ar
   7    4    8 ar
   8    5    9 ar
   9    5   24 1
  10    6    7 ar
  11    6   15 1
  12    6    9 ar
  13    7    8 ar
  14    8   25 1
  15    9   26 1
  16   10   11 ar
  17   10   27 1
  18   11   13 ar
  19   11   28 1
  20   12   14 ar
  21   12   29 1
  22   13   14 ar
  23   13   30 1
  24   14   31 1
  25   15   16 am
  26   15   19 1
  27   16   17 am
  28   16   20 2
  29   17   18 1
  30   17   23 1
  31   18   19 1
  32   18   21 1
  33   18   22 1
  34   19   32 1
  35   19   33 1
  36   21   22 1
  37   21   34 1
  38   21   35 1
  39   22   36 1
  40   22   37 1
  41   23   38 1
  42   23   39 1
  43   23   40 1

#	End of record

