#	Name: ASD00844757
#	Creating user name:	WinNT
#	Creation time:	15. 06. 2019 18:50

#	Modifying user name:	WinNT
#	Modification time:	15. 06. 2019 18:50

#	Program:	/corina/corina34_cracker 3.40 0067  02.08.2006

@<TRIPOS>MOLECULE
ASD00844757
  91   96    0    0    0
SMALL
NO_CHARGES


@<TRIPOS>ATOM
   1 F1             5.6872    -2.1809    -1.9676 F       
   2 C2             0.7268     1.2382    -0.3790 C.ar    
   3 C3             0.9731    -0.0998    -0.6496 C.ar    
   4 C4             0.8522    -1.0432     0.3606 C.ar    
   5 C5             0.4870    -0.6481     1.6328 C.ar    
   6 C6             0.2415     0.6863     1.8999 C.ar    
   7 C7             0.3617     1.6282     0.8952 C.ar    
   8 C8             1.1186    -2.4977     0.0700 C.3     
   9 C9             0.7937    -3.3483     1.2794 C.2     
  10 C10            0.3071    -2.9580    -1.1426 C.3     
  11 C11           -1.1534    -2.6694    -0.9086 C.2     
  12 N12           -2.0743    -3.0887    -1.7989 N.am    
  13 O13           -1.5001    -2.0600     0.0810 O.2     
  14 C14           -3.4906    -2.7210    -1.6500 C.3     
  15 C15           -3.9836    -2.1351    -2.9773 C.3     
  16 N16           -3.6988    -3.0828    -4.0630 N.3     
  17 C17           -2.2535    -3.2927    -4.2216 C.3     
  18 C18           -1.6886    -3.9209    -2.9486 C.3     
  19 C19           -4.3076    -2.6376    -5.3236 C.3     
  20 C20           -3.8876    -3.5796    -6.4554 C.3     
  21 C21           -4.5730    -3.1469    -7.7535 C.3     
  22 N22           -6.0302    -3.1857    -7.5755 N.3     
  23 C23           -6.4619    -2.2539    -6.5259 C.3     
  24 C24           -5.8329    -2.6600    -5.1912 C.3     
  25 C25           -6.7226    -2.9103    -8.8414 C.3     
  26 O26           -0.2910    -3.4610     1.8105 O.2     
  27 N27            1.9323    -3.9557     1.6536 N.am    
  28 C28            2.5945    -2.7305    -0.1577 C.ar    
  29 C29            3.0080    -3.6145     0.8310 C.ar    
  30 C30            3.4840    -2.2505    -1.0923 C.ar    
  31 C31            4.8106    -2.6497    -1.0527 C.ar    
  32 C32            5.2347    -3.5310    -0.0712 C.ar    
  33 C33            4.3425    -4.0125     0.8662 C.ar    
  34 Cl34           6.8960    -4.0324    -0.0198 Cl      
  35 C35            1.7230    -6.6127     2.3396 C.ar    
  36 C36            0.4691    -6.9296     1.8383 C.ar    
  37 C37            2.7194    -7.5697     2.3606 C.ar    
  38 C38            2.4676    -8.8420     1.8821 C.ar    
  39 C39            1.2183    -9.1604     1.3818 C.ar    
  40 C40            0.2188    -8.2075     1.3590 C.ar    
  41 H41            1.0241   -10.1551     1.0085 H       
  42 O42           -0.5127    -5.9902     1.8170 O.3     
  43 C43           -1.7790    -6.3871     1.2867 C.3     
  44 C44           -8.2159    -3.2019    -8.6799 C.3     
  45 S45            2.0471    -4.9891     2.9425 S.o2    
  46 O46            3.4091    -4.9758     3.3474 O.2     
  47 O47            0.9737    -4.6633     3.8148 O.2     
  48 O48            1.3319    -0.4861    -1.9022 O.3     
  49 C49            1.3586     0.5261    -2.9106 C.3     
  50 C50            1.8665    -0.0746    -4.2228 C.3     
  51 F51            3.1200    -0.6596    -4.0136 F       
  52 F52            0.9663    -1.0479    -4.6694 F       
  53 H53            0.8246     1.9749    -1.1626 H       
  54 H54            0.3927    -1.3821     2.4194 H       
  55 H55           -0.0446     0.9931     2.8950 H       
  56 H56            0.1695     2.6698     1.1063 H       
  57 H57            0.6453    -2.4235    -2.0303 H       
  58 H58            0.4470    -4.0291    -1.2881 H       
  59 H59           -4.0747    -3.6070    -1.4013 H       
  60 H60           -3.5946    -1.9769    -0.8602 H       
  61 H61           -5.0578    -1.9592    -2.9206 H       
  62 H62           -3.4702    -1.1936    -3.1724 H       
  63 H63           -2.0730    -3.9563    -5.0673 H       
  64 H64           -1.7642    -2.3350    -4.3994 H       
  65 H65           -0.6020    -3.9728    -3.0170 H       
  66 H66           -2.0986    -4.9229    -2.8217 H       
  67 H67           -3.9755    -1.6246    -5.5507 H       
  68 H68           -2.8059    -3.5357    -6.5829 H       
  69 H69           -4.1845    -4.5991    -6.2094 H       
  70 H70           -4.2649    -2.1324    -8.0062 H       
  71 H71           -4.2873    -3.8242    -8.5583 H       
  72 H72           -6.1450    -1.2436    -6.7843 H       
  73 H73           -7.5481    -2.2826    -6.4391 H       
  74 H74           -6.1604    -3.6650    -4.9253 H       
  75 H75           -6.1411    -1.9590    -4.4154 H       
  76 H76           -6.5840    -1.8633    -9.1111 H       
  77 H77           -6.3113    -3.5451    -9.6262 H       
  78 H78            3.1485    -1.5640    -1.8556 H       
  79 H79            4.6800    -4.6992     1.6283 H       
  80 H80            3.6959    -7.3235     2.7508 H       
  81 H81            3.2479    -9.5884     1.8987 H       
  82 H82           -0.7569    -8.4568     0.9689 H       
  83 H83           -2.1768    -7.2133     1.8760 H       
  84 H84           -2.4702    -5.5454     1.3281 H       
  85 H85           -1.6557    -6.7055     0.2516 H       
  86 H86           -8.7297    -2.9975    -9.6192 H       
  87 H87           -8.3545    -4.2489    -8.4103 H       
  88 H88           -8.6272    -2.5670    -7.8951 H       
  89 H89            0.3528     0.9202    -3.0566 H       
  90 H90            2.0229     1.3321    -2.5988 H       
  91 H91            1.9531     0.7116    -4.9728 H       
@<TRIPOS>BOND
   1    1   31 1
   2    2    3 ar
   3    2    7 ar
   4    2   53 1
   5    3    4 ar
   6    3   48 1
   7    4    5 ar
   8    4    8 1
   9    5    6 ar
  10    5   54 1
  11    6    7 ar
  12    6   55 1
  13    7   56 1
  14    8    9 1
  15    8   10 1
  16    8   28 1
  17    9   26 2
  18    9   27 am
  19   10   11 1
  20   10   57 1
  21   10   58 1
  22   11   12 am
  23   11   13 2
  24   12   14 1
  25   12   18 1
  26   14   15 1
  27   14   59 1
  28   14   60 1
  29   15   16 1
  30   15   61 1
  31   15   62 1
  32   16   17 1
  33   16   19 1
  34   17   18 1
  35   17   63 1
  36   17   64 1
  37   18   65 1
  38   18   66 1
  39   19   20 1
  40   19   24 1
  41   19   67 1
  42   20   21 1
  43   20   68 1
  44   20   69 1
  45   21   22 1
  46   21   70 1
  47   21   71 1
  48   22   23 1
  49   22   25 1
  50   23   24 1
  51   23   72 1
  52   23   73 1
  53   24   74 1
  54   24   75 1
  55   25   44 1
  56   25   76 1
  57   25   77 1
  58   27   45 am
  59   27   29 1
  60   28   29 ar
  61   28   30 ar
  62   29   33 ar
  63   30   31 ar
  64   30   78 1
  65   31   32 ar
  66   32   33 ar
  67   32   34 1
  68   33   79 1
  69   35   36 ar
  70   35   37 ar
  71   35   45 1
  72   36   42 1
  73   36   40 ar
  74   37   38 ar
  75   37   80 1
  76   38   39 ar
  77   38   81 1
  78   39   40 ar
  79   39   41 1
  80   40   82 1
  81   42   43 1
  82   43   83 1
  83   43   84 1
  84   43   85 1
  85   44   86 1
  86   44   87 1
  87   44   88 1
  88   45   46 2
  89   45   47 2
  90   48   49 1
  91   49   50 1
  92   49   89 1
  93   49   90 1
  94   50   51 1
  95   50   52 1
  96   50   91 1

#	End of record

