#	Name: ASD01814470
#	Creating user name:	WinNT
#	Creation time:	15. 06. 2019 19:32

#	Modifying user name:	WinNT
#	Modification time:	15. 06. 2019 19:32

#	Program:	/corina/corina34_cracker 3.40 0067  02.08.2006

@<TRIPOS>MOLECULE
ASD01814470
  60   65    0    0    0
SMALL
NO_CHARGES


@<TRIPOS>ATOM
   1 C1            -0.1983     1.2477     0.0324 C.ar    
   2 C2            -0.1201    -0.1361     0.0269 C.ar    
   3 C3             1.1032    -0.7737     0.0016 C.ar    
   4 C4             2.2740    -0.0257    -0.0191 C.ar    
   5 C5             2.1896     1.3803    -0.0140 C.ar    
   6 C6             0.9527     2.0100     0.0120 C.ar    
   7 N7             3.5123    -0.6342    -0.0442 N.pl3   
   8 N8             4.6207     0.0107    -0.0636 N.2     
   9 C9             4.7020     1.3159    -0.0618 C.2     
  10 C10            3.4602     2.1275    -0.0367 C.2     
  11 C11            5.7902     2.2961    -0.0804 C.2     
  12 N12            5.2024     3.5117    -0.0664 N.am    
  13 N13            3.8117     3.3790    -0.0405 N.2     
  14 C14            3.5636    -2.0983    -0.0483 C.3     
  15 C15            3.5540    -2.5972    -1.4703 C.ar    
  16 C16            4.7462    -2.7871    -2.1540 C.ar    
  17 C17            4.6939    -3.2472    -3.4586 C.ar    
  18 C18            3.4526    -3.5023    -4.0370 C.ar    
  19 N19            2.3351    -3.3073    -3.3488 N.ar    
  20 C20            2.3569    -2.8757    -2.1043 C.ar    
  21 O21            6.9868     2.0615    -0.1035 O.2     
  22 C22            5.8887     4.7315    -0.0764 C.ar    
  23 C23            3.3794    -3.9958    -5.4341 C.ar    
  24 C24            6.8121     5.0023    -1.0778 C.ar    
  25 C25            7.4877     6.2069    -1.0847 C.ar    
  26 C26            7.2460     7.1426    -0.0958 C.ar    
  27 C27            6.3270     6.8761     0.9029 C.ar    
  28 C28            5.6436     5.6762     0.9122 C.ar    
  29 C29            2.5739    -5.0850    -5.7589 C.ar    
  30 N30            2.5081    -5.5241    -6.9992 N.ar    
  31 C31            3.1925    -4.9591    -7.9749 C.ar    
  32 C32            4.0146    -3.8733    -7.7333 C.ar    
  33 C33            4.1132    -3.3717    -6.4471 C.ar    
  34 C34            4.6425     5.3867     2.0007 C.3     
  35 C35            6.0667     7.8988     1.9787 C.3     
  36 C36            1.7709    -5.7675    -4.6816 C.3     
  37 H37           -1.1637     1.7318     0.0481 H       
  38 H38           -1.0271    -0.7221     0.0430 H       
  39 H39            1.1506    -1.8526    -0.0017 H       
  40 H40            0.8912     3.0882     0.0159 H       
  41 H41            4.4754    -2.4313     0.4474 H       
  42 H42            2.6969    -2.4937     0.4813 H       
  43 H43            5.6939    -2.5803    -1.6791 H       
  44 H44            5.6026    -3.4058    -4.0202 H       
  45 H45            1.4270    -2.7284    -1.5752 H       
  46 H46            7.0019     4.2715    -1.8501 H       
  47 H47            8.2059     6.4181    -1.8632 H       
  48 H48            7.7761     8.0835    -0.1031 H       
  49 H49            3.1099    -5.3505    -8.9781 H       
  50 H50            4.5704    -3.4192    -8.5404 H       
  51 H51            4.7475    -2.5249    -6.2301 H       
  52 H52            3.6576     5.7359     1.6908 H       
  53 H53            4.6060     4.3129     2.1845 H       
  54 H54            4.9399     5.9017     2.9142 H       
  55 H55            5.2595     8.5600     1.6637 H       
  56 H56            5.7823     7.3919     2.9008 H       
  57 H57            6.9701     8.4842     2.1497 H       
  58 H58            0.8298    -5.2365    -4.5384 H       
  59 H59            1.5662    -6.7963    -4.9777 H       
  60 H60            2.3360    -5.7632    -3.7495 H       
@<TRIPOS>BOND
   1    1    2 ar
   2    1    6 ar
   3    1   37 1
   4    2    3 ar
   5    2   38 1
   6    3    4 ar
   7    3   39 1
   8    4    5 ar
   9    4    7 1
  10    5    6 ar
  11    5   10 1
  12    6   40 1
  13    7    8 1
  14    7   14 1
  15    8    9 2
  16    9   10 1
  17    9   11 1
  18   10   13 2
  19   11   12 am
  20   11   21 2
  21   12   13 1
  22   12   22 1
  23   14   15 1
  24   14   41 1
  25   14   42 1
  26   15   16 ar
  27   15   20 ar
  28   16   17 ar
  29   16   43 1
  30   17   18 ar
  31   17   44 1
  32   18   19 ar
  33   18   23 1
  34   19   20 ar
  35   20   45 1
  36   22   24 ar
  37   22   28 ar
  38   23   29 ar
  39   23   33 ar
  40   24   25 ar
  41   24   46 1
  42   25   26 ar
  43   25   47 1
  44   26   27 ar
  45   26   48 1
  46   27   28 ar
  47   27   35 1
  48   28   34 1
  49   29   30 ar
  50   29   36 1
  51   30   31 ar
  52   31   32 ar
  53   31   49 1
  54   32   33 ar
  55   32   50 1
  56   33   51 1
  57   34   52 1
  58   34   53 1
  59   34   54 1
  60   35   55 1
  61   35   56 1
  62   35   57 1
  63   36   58 1
  64   36   59 1
  65   36   60 1

#	End of record

