#	Name: ASD01901376
#	Creating user name:	WinNT
#	Creation time:	15. 06. 2019 19:53

#	Modifying user name:	WinNT
#	Modification time:	15. 06. 2019 19:53

#	Program:	/corina/corina34_cracker 3.40 0067  02.08.2006

@<TRIPOS>MOLECULE
ASD01901376
  40   43    0    0    0
SMALL
NO_CHARGES


@<TRIPOS>ATOM
   1 C1            -0.0169     1.3915     0.0097 C.ar    
   2 N2             1.1100     2.0780     0.0026 N.ar    
   3 C3             2.2886     1.4807    -0.0119 C.ar    
   4 C4             2.3880     0.0991    -0.0207 C.ar    
   5 C5             1.2330    -0.6637    -0.0138 C.ar    
   6 C6             0.0021    -0.0041     0.0020 C.ar    
   7 C7            -1.2661    -0.7751     0.0105 C.2     
   8 N8            -2.8431    -2.0947    -1.1497 N.2     
   9 C9            -1.7229    -1.4147    -1.1624 C.2     
  10 C10           -2.0053    -0.8807     1.1553 C.2     
  11 N11           -3.1654    -1.5970     1.1285 N.pl3   
  12 C12           -3.5778    -2.1992    -0.0322 C.2     
  13 C13           -4.1021    -1.8797     2.0858 C.2     
  14 C14           -5.0529    -2.6373     1.4989 C.2     
  15 N15           -4.7217    -2.8207     0.2174 N.2     
  16 C16           -6.2830    -3.1846     2.1760 C.3     
  17 O17           -6.2934    -2.7781     3.5459 O.3     
  18 C18           -7.3431    -3.1908     4.3040 C.ar    
  19 C19           -8.3395    -3.9756     3.7424 C.ar    
  20 C20           -7.4170    -2.8326     5.6424 C.ar    
  21 C21           -8.4849    -3.2533     6.4108 C.ar    
  22 C22           -9.4799    -4.0308     5.8471 C.ar    
  23 C23           -9.4057    -4.3939     4.5153 C.ar    
  24 F24            3.4135     2.2288    -0.0186 F       
  25 F25           -1.1990     2.0451     0.0302 F       
  26 C26           -8.5655    -2.8649     7.8647 C.3     
  27 H27            3.3568    -0.3780    -0.0333 H       
  28 H28            1.2824    -1.7425    -0.0208 H       
  29 H29           -1.1472    -1.3430    -2.0733 H       
  30 H30           -1.6756    -0.4045     2.0669 H       
  31 H31           -4.0838    -1.5577     3.1165 H       
  32 H32           -7.1732    -2.8020     1.6767 H       
  33 H33           -6.2746    -4.2732     2.1200 H       
  34 H34           -8.2821    -4.2592     2.7019 H       
  35 H35           -6.6400    -2.2256     6.0831 H       
  36 H36          -10.3139    -4.3591     6.4497 H       
  37 H37          -10.1819    -5.0046     4.0784 H       
  38 H38           -9.1036    -1.9218     7.9595 H       
  39 H39           -9.0925    -3.6413     8.4194 H       
  40 H40           -7.5588    -2.7510     8.2667 H       
@<TRIPOS>BOND
   1    1    6 ar
   2    1    2 ar
   3    1   25 1
   4    2    3 ar
   5    3    4 ar
   6    3   24 1
   7    4    5 ar
   8    4   27 1
   9    5    6 ar
  10    5   28 1
  11    6    7 1
  12    7   10 2
  13    7    9 1
  14    8    9 2
  15    8   12 1
  16    9   29 1
  17   10   11 1
  18   10   30 1
  19   11   13 1
  20   11   12 1
  21   12   15 2
  22   13   14 2
  23   13   31 1
  24   14   15 1
  25   14   16 1
  26   16   17 1
  27   16   32 1
  28   16   33 1
  29   17   18 1
  30   18   20 ar
  31   18   19 ar
  32   19   23 ar
  33   19   34 1
  34   20   21 ar
  35   20   35 1
  36   21   22 ar
  37   21   26 1
  38   22   23 ar
  39   22   36 1
  40   23   37 1
  41   26   38 1
  42   26   39 1
  43   26   40 1

#	End of record

