#	Name: ASD00845307
#	Creating user name:	WinNT
#	Creation time:	15. 06. 2019 18:52

#	Modifying user name:	WinNT
#	Modification time:	15. 06. 2019 18:52

#	Program:	/corina/corina34_cracker 3.40 0067  02.08.2006

@<TRIPOS>MOLECULE
ASD00845307
  97  102    0    0    0
SMALL
NO_CHARGES


@<TRIPOS>ATOM
   1 F1            -0.0762    -3.1158     4.7249 F       
   2 C2            -0.0167     1.3829     0.0096 C.ar    
   3 C3             0.0021    -0.0041     0.0020 C.ar    
   4 C4             1.2143    -0.6791    -0.0132 C.ar    
   5 C5             2.3989     0.0312    -0.0207 C.ar    
   6 C6             2.3774     1.4139    -0.0126 C.ar    
   7 C7             1.1710     2.0888     0.0021 C.ar    
   8 C8             1.2384    -2.1858    -0.0210 C.3     
   9 C9             0.4954    -2.7217    -1.2260 C.2     
  10 O10            2.6067    -2.6714    -0.0100 O.3     
  11 C11            3.3978    -2.2930    -1.0317 C.2     
  12 N12            4.6788    -2.7088    -1.0818 N.am    
  13 O13            2.9568    -1.5767    -1.9085 O.2     
  14 C14            5.5600    -2.3073    -2.1888 C.3     
  15 C15            6.8538    -1.7362    -1.5986 C.3     
  16 N16            7.4341    -2.7105    -0.6648 N.3     
  17 C17            6.5393    -2.9551     0.4743 C.3     
  18 C18            5.2344    -3.5712    -0.0278 C.3     
  19 C19            8.7610    -2.2762    -0.2081 C.3     
  20 C20            9.2799    -3.2486     0.8548 C.3     
  21 C21           10.6872    -2.8258     1.2824 C.3     
  22 N22           11.5769    -2.8292     0.1141 N.3     
  23 C23           11.1250    -1.8682    -0.9002 C.3     
  24 C24            9.7308    -2.2624    -1.3930 C.3     
  25 C25           12.9663    -2.5627     0.5096 C.3     
  26 O26            0.7745    -2.5251    -2.3899 O.2     
  27 N27           -0.5308    -3.4561    -0.7651 N.am    
  28 C28            0.4695    -2.7339     1.1599 C.ar    
  29 C29           -0.5756    -3.4845     0.6309 C.ar    
  30 C30            0.6376    -2.6093     2.5214 C.ar    
  31 C31           -0.2397    -3.2360     3.3892 C.ar    
  32 C32           -1.2963    -3.9947     2.8754 C.ar    
  33 C33           -1.4606    -4.1171     1.4959 C.ar    
  34 C34           -0.9792    -5.8526    -2.0419 C.ar    
  35 C35            0.2004    -6.0093    -2.7554 C.ar    
  36 C36           -1.6509    -6.9614    -1.5630 C.ar    
  37 C37           -1.1498    -8.2281    -1.7930 C.ar    
  38 C38            0.0298    -8.3901    -2.5062 C.ar    
  39 C39            0.7051    -7.2796    -2.9879 C.ar    
  40 O40            0.5219    -9.6365    -2.7325 O.3     
  41 O41            0.8603    -4.9187    -3.2264 O.3     
  42 C42            2.0683    -5.1547    -3.9525 C.3     
  43 C43           -0.2264   -10.7347    -2.2073 C.3     
  44 C44           13.8933    -2.8183    -0.6804 C.3     
  45 C45           15.3404    -2.5408    -0.2684 C.3     
  46 O46           -1.1648    -0.7006     0.0099 O.3     
  47 C47           -2.3744     0.0601     0.0260 C.3     
  48 C48           -3.5740    -0.8895     0.0328 C.3     
  49 F49           -3.5417    -1.6899    -1.1142 F       
  50 F50           -3.5190    -1.7022     1.1702 F       
  51 C51           -2.2089    -4.6466     3.7658 C.1     
  52 N52           -2.9329    -5.1638     4.4721 N.1     
  53 S53           -1.6174    -4.2383    -1.7397 S.o2    
  54 O54           -2.7973    -4.4114    -0.9671 O.2     
  55 O55           -1.5983    -3.5592    -2.9878 O.2     
  56 H56           -0.9590     1.9106     0.0170 H       
  57 H57            3.3426    -0.4937    -0.0325 H       
  58 H58            3.3047     1.9675    -0.0178 H       
  59 H59            1.1569     3.1687     0.0084 H       
  60 H60            5.7912    -3.1754    -2.8062 H       
  61 H61            5.0658    -1.5462    -2.7926 H       
  62 H62            7.5626    -1.5356    -2.4020 H       
  63 H63            6.6335    -0.8101    -1.0677 H       
  64 H64            7.0200    -3.6385     1.1742 H       
  65 H65            6.3234    -2.0120     0.9763 H       
  66 H66            4.5250    -3.6483     0.7962 H       
  67 H67            5.4313    -4.5612    -0.4390 H       
  68 H68            8.6902    -1.2752     0.2175 H       
  69 H69            8.6162    -3.2309     1.7192 H       
  70 H70            9.3127    -4.2564     0.4409 H       
  71 H71           10.6514    -1.8233     1.7087 H       
  72 H72           11.0653    -3.5245     2.0287 H       
  73 H73           11.0872    -0.8702    -0.4636 H       
  74 H74           11.8210    -1.8713    -1.7391 H       
  75 H75            9.7706    -3.2547    -1.8422 H       
  76 H76            9.3892    -1.5401    -2.1344 H       
  77 H77           13.0608    -1.5244     0.8274 H       
  78 H78           13.2423    -3.2213     1.3332 H       
  79 H79            1.4553    -2.0220     2.9122 H       
  80 H80           -2.2766    -4.7032     1.0995 H       
  81 H81           -2.5689    -6.8374    -1.0078 H       
  82 H82           -1.6762    -9.0930    -1.4172 H       
  83 H83            1.6230    -7.4037    -3.5435 H       
  84 H84            2.7812    -5.6746    -3.3126 H       
  85 H85            1.8522    -5.7670    -4.8280 H       
  86 H86            2.4928    -4.2026    -4.2708 H       
  87 H87           -1.2272   -10.7321    -2.6393 H       
  88 H88            0.2752   -11.6693    -2.4583 H       
  89 H89           -0.2982   -10.6404    -1.1238 H       
  90 H90           13.7988    -3.8566    -0.9982 H       
  91 H91           13.6173    -2.1597    -1.5039 H       
  92 H92           15.6164    -3.1994     0.5551 H       
  93 H93           16.0009    -2.7229    -1.1162 H       
  94 H94           15.4350    -1.5025     0.0494 H       
  95 H95           -2.3995     0.6837     0.9196 H       
  96 H96           -2.4172     0.6932    -0.8603 H       
  97 H97           -4.4966    -0.3093     0.0451 H       
@<TRIPOS>BOND
   1    1   31 1
   2    2    3 ar
   3    2    7 ar
   4    2   56 1
   5    3    4 ar
   6    3   46 1
   7    4    5 ar
   8    4    8 1
   9    5    6 ar
  10    5   57 1
  11    6    7 ar
  12    6   58 1
  13    7   59 1
  14    8    9 1
  15    8   10 1
  16    8   28 1
  17    9   26 2
  18    9   27 am
  19   10   11 1
  20   11   12 am
  21   11   13 2
  22   12   14 1
  23   12   18 1
  24   14   15 1
  25   14   60 1
  26   14   61 1
  27   15   16 1
  28   15   62 1
  29   15   63 1
  30   16   17 1
  31   16   19 1
  32   17   18 1
  33   17   64 1
  34   17   65 1
  35   18   66 1
  36   18   67 1
  37   19   20 1
  38   19   24 1
  39   19   68 1
  40   20   21 1
  41   20   69 1
  42   20   70 1
  43   21   22 1
  44   21   71 1
  45   21   72 1
  46   22   23 1
  47   22   25 1
  48   23   24 1
  49   23   73 1
  50   23   74 1
  51   24   75 1
  52   24   76 1
  53   25   44 1
  54   25   77 1
  55   25   78 1
  56   27   53 am
  57   27   29 1
  58   28   29 ar
  59   28   30 ar
  60   29   33 ar
  61   30   31 ar
  62   30   79 1
  63   31   32 ar
  64   32   33 ar
  65   32   51 1
  66   33   80 1
  67   34   35 ar
  68   34   36 ar
  69   34   53 1
  70   35   41 1
  71   35   39 ar
  72   36   37 ar
  73   36   81 1
  74   37   38 ar
  75   37   82 1
  76   38   39 ar
  77   38   40 1
  78   39   83 1
  79   40   43 1
  80   41   42 1
  81   42   84 1
  82   42   85 1
  83   42   86 1
  84   43   87 1
  85   43   88 1
  86   43   89 1
  87   44   45 1
  88   44   90 1
  89   44   91 1
  90   45   92 1
  91   45   93 1
  92   45   94 1
  93   46   47 1
  94   47   48 1
  95   47   95 1
  96   47   96 1
  97   48   49 1
  98   48   50 1
  99   48   97 1
 100   51   52 3
 101   53   54 2
 102   53   55 2

#	End of record

