#	Name: ASD02560511
#	Creating user name:	WinNT
#	Creation time:	15. 06. 2019 20:25

#	Modifying user name:	WinNT
#	Modification time:	15. 06. 2019 20:25

#	Program:	/corina/corina34_cracker 3.40 0067  02.08.2006

@<TRIPOS>MOLECULE
ASD02560511
  45   47    0    0    0
SMALL
NO_CHARGES


@<TRIPOS>ATOM
   1 C1            -0.0260     1.4101    -0.1170 C.2     
   2 C2            -0.0035     0.0041    -0.0965 C.2     
   3 C3            -1.1553    -0.6954    -0.0577 C.2     
   4 N4            -2.3615    -0.0495    -0.0377 N.pl3   
   5 C5            -2.4145     1.3253    -0.0564 C.2     
   6 C6            -1.2160     2.0672    -0.0918 C.2     
   7 C7            -3.6531    -0.4994     0.0012 C.2     
   8 C8            -4.4564     0.5941     0.0054 C.2     
   9 N9            -3.6872     1.6881    -0.0299 N.2     
  10 C10           -5.9629     0.5788     0.0428 C.3     
  11 N11           -4.0678    -1.8367     0.0308 N.3     
  12 C12           -2.9223    -2.7462    -0.1058 C.3     
  13 C13           -6.4494     1.3127     1.2940 C.3     
  14 C14           -6.5112     1.2767    -1.2034 C.3     
  15 C15           -2.2371    -2.9109     1.2523 C.3     
  16 C16           -3.4098    -4.1097    -0.5998 C.3     
  17 C17           -2.2168    -5.0570    -0.7421 C.3     
  18 C18           -1.5317    -5.2218     0.6160 C.3     
  19 C19           -1.0441    -3.8582     1.1100 C.3     
  20 C20            1.2651     2.1862    -0.1604 C.3     
  21 H21            0.9417    -0.5181    -0.1124 H       
  22 H22           -1.1257    -1.7749    -0.0427 H       
  23 H23           -1.2432     3.1468    -0.1065 H       
  24 H24           -6.3153    -0.4524     0.0664 H       
  25 H25           -4.5888    -2.0352     0.8717 H       
  26 H26           -2.2132    -2.3323    -0.8227 H       
  27 H27           -6.0970     2.3439     1.2705 H       
  28 H28           -7.5390     1.3016     1.3211 H       
  29 H29           -6.0588     0.8155     2.1819 H       
  30 H30           -6.1588     2.3079    -1.2270 H       
  31 H31           -6.1646     0.7538    -2.0948 H       
  32 H32           -7.6008     1.2657    -1.1763 H       
  33 H33           -1.8898    -1.9395     1.6042 H       
  34 H34           -2.9463    -3.3248     1.9691 H       
  35 H35           -4.1190    -4.5236     0.1171 H       
  36 H36           -3.8980    -3.9923    -1.5673 H       
  37 H37           -2.5642    -6.0284    -1.0940 H       
  38 H38           -1.5077    -4.6431    -1.4589 H       
  39 H39           -2.2408    -5.6356     1.3329 H       
  40 H40           -0.6817    -5.8966     0.5147 H       
  41 H41           -0.3350    -3.4444     0.3931 H       
  42 H42           -0.5560    -3.9756     2.0775 H       
  43 H43            2.1058     1.4925    -0.1707 H       
  44 H44            1.2897     2.8004    -1.0605 H       
  45 H45            1.3335     2.8270     0.7187 H       
@<TRIPOS>BOND
   1    1    2 1
   2    1   20 1
   3    1    6 2
   4    2    3 2
   5    2   21 1
   6    3    4 1
   7    3   22 1
   8    4    5 1
   9    4    7 1
  10    5    6 1
  11    5    9 2
  12    6   23 1
  13    7    8 2
  14    7   11 1
  15    8    9 1
  16    8   10 1
  17   10   13 1
  18   10   14 1
  19   10   24 1
  20   11   12 1
  21   11   25 1
  22   12   16 1
  23   12   15 1
  24   12   26 1
  25   13   27 1
  26   13   28 1
  27   13   29 1
  28   14   30 1
  29   14   31 1
  30   14   32 1
  31   15   19 1
  32   15   33 1
  33   15   34 1
  34   16   17 1
  35   16   35 1
  36   16   36 1
  37   17   18 1
  38   17   37 1
  39   17   38 1
  40   18   19 1
  41   18   39 1
  42   18   40 1
  43   19   41 1
  44   19   42 1
  45   20   43 1
  46   20   44 1
  47   20   45 1

#	End of record

