#	Name: ASD01230639
#	Creating user name:	WinNT
#	Creation time:	15. 06. 2019 19:14

#	Modifying user name:	WinNT
#	Modification time:	15. 06. 2019 19:14

#	Program:	/corina/corina34_cracker 3.40 0067  02.08.2006

@<TRIPOS>MOLECULE
ASD01230639
  27   28    0    0    0
SMALL
NO_CHARGES


@<TRIPOS>ATOM
   1 C1            -0.0169     1.3916     0.0097 C.ar    
   2 C2             0.0021    -0.0041     0.0020 C.ar    
   3 C3             1.2030    -0.6759    -0.0126 C.ar    
   4 C4             2.4024     0.0385    -0.0202 C.ar    
   5 C5             2.3833     1.4345    -0.0130 C.ar    
   6 C6             1.1822     2.1060     0.0021 C.ar    
   7 B7            -1.3871     2.1579     0.0203 Du      
   8 O8            -2.6070     1.4312     0.0221 O.3     
   9 O9            -1.4064     3.5778     0.0281 O.3     
  10 C10            4.6886    -0.3507    -0.9684 C.ar    
  11 C11            3.6949    -0.6843    -0.0354 C.ar    
  12 C12            3.9462    -1.7092     0.8784 C.ar    
  13 C13            5.1711    -2.3548     0.8238 C.ar    
  14 C14            6.1005    -1.9704    -0.1238 C.ar    
  15 N15            5.8422    -0.9987    -0.9785 N.ar    
  16 N16            4.4580     0.6602    -1.8890 N.pl3   
  17 H17           -0.9258    -0.5567     0.0079 H       
  18 H18            1.2176    -1.7558    -0.0178 H       
  19 H19            3.3111     1.9873    -0.0185 H       
  20 H20            1.1674     3.1859     0.0076 H       
  21 H21           -3.3970     1.9888     0.0289 H       
  22 H22           -2.2951     3.9590     0.0344 H       
  23 H23            3.2042    -1.9918     1.6104 H       
  24 H24            5.3977    -3.1517     1.5166 H       
  25 H25            7.0551    -2.4738    -0.1655 H       
  26 H26            3.6118     1.1344    -1.8868 H       
  27 H27            5.1428     0.8932    -2.5352 H       
@<TRIPOS>BOND
   1    1    2 ar
   2    1    6 ar
   3    1    7 1
   4    2    3 ar
   5    2   17 1
   6    3    4 ar
   7    3   18 1
   8    4    5 ar
   9    4   11 1
  10    5    6 ar
  11    5   19 1
  12    6   20 1
  13    7    8 1
  14    7    9 1
  15    8   21 1
  16    9   22 1
  17   10   11 ar
  18   10   15 ar
  19   10   16 1
  20   11   12 ar
  21   12   13 ar
  22   12   23 1
  23   13   14 ar
  24   13   24 1
  25   14   15 ar
  26   14   25 1
  27   16   26 1
  28   16   27 1

#	End of record

