#	Name: ASD01917790
#	Creating user name:	WinNT
#	Creation time:	15. 06. 2019 20:10

#	Modifying user name:	WinNT
#	Modification time:	15. 06. 2019 20:10

#	Program:	/corina/corina34_cracker 3.40 0067  02.08.2006

@<TRIPOS>MOLECULE
ASD01917790
  45   48    0    0    0
SMALL
NO_CHARGES


@<TRIPOS>ATOM
   1 C1            -0.1031     1.4359     0.2450 C.2     
   2 C2            -0.0458     0.0903     0.2392 C.2     
   3 C3            -1.2475    -0.8163     0.1541 C.3     
   4 C4            -2.5005    -0.0140     0.5269 C.3     
   5 N5            -2.4653     1.2837    -0.1639 N.am    
   6 C6            -1.3855     2.2279     0.1768 C.3     
   7 C7            -3.3961     1.6017    -1.0853 C.2     
   8 O8            -4.2240     0.7783    -1.4219 O.2     
   9 C9            -3.4100     2.9553    -1.6877 C.ar    
  10 O10            1.1539     1.8914     0.3258 O.3     
  11 C11            1.9682     0.8251     0.3722 C.2     
  12 N12            1.2448    -0.2598     0.3205 N.2     
  13 C13            3.4714     0.8731     0.4680 C.3     
  14 O14            4.0319     0.8955    -0.8463 O.3     
  15 C15            5.3871     0.9394    -0.9384 C.ar    
  16 C16            5.9985     0.9632    -2.1835 C.ar    
  17 C17            7.3762     1.0077    -2.2745 C.ar    
  18 C18            8.1457     1.0285    -1.1259 C.ar    
  19 C19            7.5388     1.0044     0.1162 C.ar    
  20 C20            6.1612     0.9661     0.2125 C.ar    
  21 C21           -2.9391     3.1384    -2.9855 C.ar    
  22 C22           -2.9588     4.4106    -3.5359 C.ar    
  23 C23           -3.4491     5.4552    -2.7685 C.ar    
  24 C24           -3.9018     5.2001    -1.4836 C.ar    
  25 N25           -3.8764     3.9824    -0.9879 N.ar    
  26 C26           -2.4150     1.9701    -3.7801 C.3     
  27 H27           -1.3466    -1.1969    -0.8624 H       
  28 H28           -1.1269    -1.6485     0.8476 H       
  29 H29           -3.3901    -0.5651     0.2219 H       
  30 H30           -2.5224     0.1474     1.6047 H       
  31 H31           -1.5877     2.6897     1.1432 H       
  32 H32           -1.3073     2.9955    -0.5931 H       
  33 H33            3.7726     1.7714     1.0068 H       
  34 H34            3.8298    -0.0076     1.0009 H       
  35 H35            5.3979     0.9465    -3.0810 H       
  36 H36            7.8526     1.0259    -3.2435 H       
  37 H37            9.2227     1.0634    -1.1991 H       
  38 H38            8.1421     1.0201     1.0118 H       
  39 H39            5.6876     0.9473     1.1829 H       
  40 H40           -2.6000     4.5837    -4.5397 H       
  41 H41           -3.4778     6.4584    -3.1676 H       
  42 H42           -4.2846     6.0119    -0.8827 H       
  43 H43           -3.2461     1.4590    -4.2660 H       
  44 H44           -1.7170     2.3290    -4.5365 H       
  45 H45           -1.9027     1.2772    -3.1126 H       
@<TRIPOS>BOND
   1    1    2 2
   2    1   10 1
   3    1    6 1
   4    2    3 1
   5    2   12 1
   6    3    4 1
   7    3   27 1
   8    3   28 1
   9    4    5 1
  10    4   29 1
  11    4   30 1
  12    5    6 1
  13    5    7 am
  14    6   31 1
  15    6   32 1
  16    7    8 2
  17    7    9 1
  18    9   21 ar
  19    9   25 ar
  20   10   11 1
  21   11   12 2
  22   11   13 1
  23   13   14 1
  24   13   33 1
  25   13   34 1
  26   14   15 1
  27   15   16 ar
  28   15   20 ar
  29   16   17 ar
  30   16   35 1
  31   17   18 ar
  32   17   36 1
  33   18   19 ar
  34   18   37 1
  35   19   20 ar
  36   19   38 1
  37   20   39 1
  38   21   22 ar
  39   21   26 1
  40   22   23 ar
  41   22   40 1
  42   23   24 ar
  43   23   41 1
  44   24   25 ar
  45   24   42 1
  46   26   43 1
  47   26   44 1
  48   26   45 1

#	End of record

