#	Name: ASD01940062
#	Creating user name:	WinNT
#	Creation time:	15. 06. 2019 20:11

#	Modifying user name:	WinNT
#	Modification time:	15. 06. 2019 20:11

#	Program:	/corina/corina34_cracker 3.40 0067  02.08.2006

@<TRIPOS>MOLECULE
ASD01940062
  35   36    0    0    0
SMALL
NO_CHARGES


@<TRIPOS>ATOM
   1 C1            -0.0174     1.3867     0.0363 C.ar    
   2 C2            -0.0993     0.1349    -0.5602 C.ar    
   3 C3            -1.2869    -0.5695    -0.5251 C.ar    
   4 C4            -2.3947    -0.0297     0.1027 C.ar    
   5 C5            -2.3169     1.2180     0.6985 C.ar    
   6 C6            -1.1295     1.9245     0.6719 C.ar    
   7 N7             1.1831     2.1014     0.0020 N.pl3   
   8 C8             1.1642     3.4814    -0.0948 C.2     
   9 C9             2.2480     4.3446    -0.0202 C.2     
  10 C10            3.6316     3.8853     0.1827 C.2     
  11 N11            4.1336     3.7517     1.4604 N.pl3   
  12 N12            4.3845     3.6041    -0.8479 N.2     
  13 C13            5.5107     3.2945     1.6624 C.3     
  14 I14           -4.1942    -1.1014     0.1521 I       
  15 C15            6.4630     4.4885     1.5709 C.3     
  16 C16            5.6358     2.6470     3.0429 C.3     
  17 C17            1.9014     5.6899    -0.1559 C.2     
  18 N18            0.6426     5.9565    -0.3301 N.2     
  19 S19           -0.2069     4.4904    -0.3407 S.3     
  20 O20            2.8368     6.6737    -0.1076 O.3     
  21 Cl21          -3.7099     1.8921     1.4850 Cl      
  22 H22            0.7650    -0.2872    -1.0514 H       
  23 H23           -1.3507    -1.5427    -0.9888 H       
  24 H24           -1.0689     2.8975     1.1365 H       
  25 H25            2.0296     1.6298     0.0462 H       
  26 H26            3.5747     3.9604     2.2253 H       
  27 H27            5.2963     3.3014    -0.7142 H       
  28 H28            5.7677     2.5651     0.8943 H       
  29 H29            6.2060     5.2179     2.3390 H       
  30 H30            7.4876     4.1484     1.7211 H       
  31 H31            6.3738     4.9498     0.5873 H       
  32 H32            4.9574     1.7964     3.1081 H       
  33 H33            6.6604     2.3068     3.1932 H       
  34 H34            5.3788     3.3764     3.8110 H       
  35 H35            3.2162     6.8983    -0.9683 H       
@<TRIPOS>BOND
   1    1    2 ar
   2    1    7 1
   3    1    6 ar
   4    2    3 ar
   5    2   22 1
   6    3    4 ar
   7    3   23 1
   8    4    5 ar
   9    4   14 1
  10    5    6 ar
  11    5   21 1
  12    6   24 1
  13    7    8 1
  14    7   25 1
  15    8    9 2
  16    8   19 1
  17    9   10 1
  18    9   17 1
  19   10   11 1
  20   10   12 2
  21   11   13 1
  22   11   26 1
  23   12   27 1
  24   13   15 1
  25   13   16 1
  26   13   28 1
  27   15   29 1
  28   15   30 1
  29   15   31 1
  30   16   32 1
  31   16   33 1
  32   16   34 1
  33   17   18 2
  34   17   20 1
  35   18   19 1
  36   20   35 1

#	End of record

