#	Name: ASD03731041
#	Creating user name:	WinNT
#	Creation time:	15. 06. 2019 20:45

#	Modifying user name:	WinNT
#	Modification time:	15. 06. 2019 20:45

#	Program:	/corina/corina34_cracker 3.40 0067  02.08.2006

@<TRIPOS>MOLECULE
ASD03731041
  54   60    0    0    0
SMALL
NO_CHARGES


@<TRIPOS>ATOM
   1 O1             0.3191     1.5712    -1.3710 O.3     
   2 C2             0.3754     0.1445    -1.5565 C.3     
   3 O3             1.7254    -0.0905    -1.9982 O.3     
   4 C4             2.4647     0.9309    -1.4737 C.ar    
   5 C5             1.5997     1.9527    -1.0892 C.ar    
   6 C6             3.8283     1.0730    -1.2896 C.ar    
   7 C7             4.3459     2.2338    -0.7227 C.ar    
   8 C8             3.4725     3.2511    -0.3502 C.ar    
   9 C9             2.1119     3.1097    -0.5268 C.ar    
  10 O10            5.6387     2.5649    -0.4413 O.3     
  11 C11            4.3223     4.3673     0.1955 C.3     
  12 C12            5.7366     3.9917    -0.2675 C.3     
  13 N13            3.6078     6.4664     0.7500 N.am    
  14 C14            3.9005     5.7104    -0.3270 C.2     
  15 C15            4.2324     4.4753     1.6888 C.ar    
  16 C16            4.4839     3.6009     2.7226 C.ar    
  17 C17            4.3028     4.0067     4.0327 C.ar    
  18 C18            3.8687     5.2921     4.3013 C.ar    
  19 C19            3.6146     6.1713     3.2694 C.ar    
  20 C20            3.7944     5.7715     1.9474 C.ar    
  21 O21            3.8361     6.0487    -1.4899 O.2     
  22 C22            3.1483     7.8554     0.6736 C.3     
  23 C23           -0.3990     8.0999     1.9848 C.2     
  24 C24            1.0099     8.0702     1.9388 C.2     
  25 C25            1.6437     7.8917     0.7505 C.2     
  26 C26            0.8250     7.7360    -0.4536 C.ar    
  27 C27            1.4166     7.5483    -1.7082 C.ar    
  28 C28            0.6301     7.4055    -2.8142 C.ar    
  29 C29           -0.7586     7.4457    -2.7029 C.ar    
  30 C30           -1.3608     7.6305    -1.4693 C.ar    
  31 C31           -0.5766     7.7769    -0.3349 C.ar    
  32 O32           -1.1437     7.9571     0.8772 O.3     
  33 O33           -0.9547     8.2555     3.0574 O.2     
  34 O34           -1.5273     7.3029    -3.8127 O.3     
  35 C35           -0.8454     7.1160    -5.0545 C.3     
  36 H36            0.1850    -0.3719    -0.6157 H       
  37 H37           -0.3372    -0.1710    -2.3186 H       
  38 H38            4.4956     0.2778    -1.5875 H       
  39 H39            1.4443     3.9037    -0.2260 H       
  40 H40            6.4728     4.2389     0.4973 H       
  41 H41            5.9778     4.4810    -1.2112 H       
  42 H42            4.8224     2.5976     2.5104 H       
  43 H43            4.4996     3.3213     4.8438 H       
  44 H44            3.7277     5.6089     5.3241 H       
  45 H45            3.2750     7.1731     3.4872 H       
  46 H46            3.5683     8.4232     1.5038 H       
  47 H47            3.4746     8.2947    -0.2691 H       
  48 H48            1.5838     8.1881     2.8461 H       
  49 H49            2.4922     7.5171    -1.8007 H       
  50 H50            1.0867     7.2607    -3.7821 H       
  51 H51           -2.4375     7.6602    -1.3911 H       
  52 H52           -0.2361     6.2137    -5.0022 H       
  53 H53           -1.5750     7.0157    -5.8581 H       
  54 H54           -0.2050     7.9760    -5.2504 H       
@<TRIPOS>BOND
   1    1    2 1
   2    1    5 1
   3    2    3 1
   4    2   36 1
   5    2   37 1
   6    3    4 1
   7    4    5 ar
   8    4    6 ar
   9    5    9 ar
  10    6    7 ar
  11    6   38 1
  12    7    8 ar
  13    7   10 1
  14    8    9 ar
  15    8   11 1
  16    9   39 1
  17   10   12 1
  18   11   12 1
  19   11   14 1
  20   11   15 1
  21   12   40 1
  22   12   41 1
  23   13   14 am
  24   13   20 1
  25   13   22 1
  26   14   21 2
  27   15   16 ar
  28   15   20 ar
  29   16   17 ar
  30   16   42 1
  31   17   18 ar
  32   17   43 1
  33   18   19 ar
  34   18   44 1
  35   19   20 ar
  36   19   45 1
  37   22   25 1
  38   22   46 1
  39   22   47 1
  40   23   24 1
  41   23   32 1
  42   23   33 2
  43   24   25 2
  44   24   48 1
  45   25   26 1
  46   26   27 ar
  47   26   31 ar
  48   27   28 ar
  49   27   49 1
  50   28   29 ar
  51   28   50 1
  52   29   30 ar
  53   29   34 1
  54   30   31 ar
  55   30   51 1
  56   31   32 1
  57   34   35 1
  58   35   52 1
  59   35   53 1
  60   35   54 1

#	End of record

