#	Name: ASD01028180
#	Creating user name:	WinNT
#	Creation time:	15. 06. 2019 18:56

#	Modifying user name:	WinNT
#	Modification time:	15. 06. 2019 18:56

#	Program:	/corina/corina34_cracker 3.40 0067  02.08.2006

@<TRIPOS>MOLECULE
ASD01028180
  28   29    0    0    0
SMALL
NO_CHARGES


@<TRIPOS>ATOM
   1 C1            -0.0184     1.5028     0.0103 C.2     
   2 C2             0.0021    -0.0041     0.0020 C.3     
   3 O3             1.0197     2.1211     0.0037 O.2     
   4 O4            -1.1898     2.1580     0.0194 O.3     
   5 O5             1.3556    -0.4620    -0.0134 O.3     
   6 N6             1.9271    -4.5465    -0.0411 N.ar    
   7 C7             0.7124    -4.0500    -0.0259 C.ar    
   8 C8             0.4812    -2.6803    -0.0169 C.ar    
   9 C9             1.5515    -1.8036    -0.0224 C.ar    
  10 C10            2.8550    -2.3491    -0.0383 C.ar    
  11 C11            3.9890    -1.5235    -0.0443 C.ar    
  12 C12            5.2311    -2.0791    -0.0591 C.ar    
  13 C13            5.3935    -3.4675    -0.0685 C.ar    
  14 C14            4.3006    -4.3043    -0.0629 C.ar    
  15 C15            3.0077    -3.7571    -0.0477 C.ar    
  16 O16            6.6443    -3.9970    -0.0836 O.3     
  17 C17            7.7381    -3.0774    -0.0891 C.3     
  18 H18           -0.4983    -0.3791     0.8948 H       
  19 H19           -0.5153    -0.3696    -0.8850 H       
  20 H20           -1.1523     3.1243     0.0245 H       
  21 H21           -0.1308    -4.7249    -0.0211 H       
  22 H22           -0.5300    -2.3013    -0.0051 H       
  23 H23            3.8765    -0.4494    -0.0375 H       
  24 H24            6.1017    -1.4399    -0.0640 H       
  25 H25            4.4368    -5.3757    -0.0706 H       
  26 H26            7.6768    -2.4453    -0.9750 H       
  27 H27            7.6942    -2.4553     0.8048 H       
  28 H28            8.6774    -3.6301    -0.1014 H       
@<TRIPOS>BOND
   1    1    2 1
   2    1    3 2
   3    1    4 1
   4    2    5 1
   5    2   18 1
   6    2   19 1
   7    4   20 1
   8    5    9 1
   9    6    7 ar
  10    6   15 ar
  11    7    8 ar
  12    7   21 1
  13    8    9 ar
  14    8   22 1
  15    9   10 ar
  16   10   11 ar
  17   10   15 ar
  18   11   12 ar
  19   11   23 1
  20   12   13 ar
  21   12   24 1
  22   13   14 ar
  23   13   16 1
  24   14   15 ar
  25   14   25 1
  26   16   17 1
  27   17   26 1
  28   17   27 1
  29   17   28 1

#	End of record

