#	Name: ASD01900699
#	Creating user name:	WinNT
#	Creation time:	15. 06. 2019 19:52

#	Modifying user name:	WinNT
#	Modification time:	15. 06. 2019 19:52

#	Program:	/corina/corina34_cracker 3.40 0067  02.08.2006

@<TRIPOS>MOLECULE
ASD01900699
  27   29    0    0    0
SMALL
NO_CHARGES


@<TRIPOS>ATOM
   1 C1            -0.0183     1.4025     0.1324 C.ar    
   2 C2            -0.0081     0.0176     0.1214 C.ar    
   3 C3             1.1829    -0.6779     0.0625 C.ar    
   4 C4             2.3875     0.0111     0.0134 C.ar    
   5 C5             2.3723     1.4127     0.0292 C.ar    
   6 O6             3.5588    -0.6564    -0.0562 O.3     
   7 C7             4.7339    -0.0516     0.1903 C.2     
   8 C8             4.8736     1.2932     0.2212 C.2     
   9 C9             3.6751     2.1243    -0.0105 C.2     
  10 C10            5.9238    -0.8922     0.4386 C.ar    
  11 N11            7.1089    -0.3338     0.6871 N.ar    
  12 C12            8.1695    -1.0804     0.9088 C.ar    
  13 N13            8.1100    -2.3978     0.8952 N.ar    
  14 C14            6.9707    -3.0284     0.6562 C.ar    
  15 C15            5.8251    -2.2877     0.4226 C.ar    
  16 C16            1.1700     2.1048     0.0864 C.ar    
  17 N17            3.7563     3.4118    -0.2378 N.2     
  18 O18            2.5980     4.1413    -0.5998 O.3     
  19 H19           -0.9575     1.9343     0.1725 H       
  20 H20           -0.9417    -0.5239     0.1595 H       
  21 H21            1.1778    -1.7579     0.0550 H       
  22 H22            5.8352     1.7469     0.4105 H       
  23 H23            9.1163    -0.6004     1.1074 H       
  24 H24            6.9348    -4.1078     0.6478 H       
  25 H25            4.8813    -2.7742     0.2249 H       
  26 H26            1.1641     3.1848     0.0946 H       
  27 H27            2.7567     5.0837    -0.7470 H       
@<TRIPOS>BOND
   1    1    2 ar
   2    1   16 ar
   3    1   19 1
   4    2    3 ar
   5    2   20 1
   6    3    4 ar
   7    3   21 1
   8    4    5 ar
   9    4    6 1
  10    5   16 ar
  11    5    9 1
  12    6    7 1
  13    7    8 2
  14    7   10 1
  15    8    9 1
  16    8   22 1
  17    9   17 2
  18   10   11 ar
  19   10   15 ar
  20   11   12 ar
  21   12   13 ar
  22   12   23 1
  23   13   14 ar
  24   14   15 ar
  25   14   24 1
  26   15   25 1
  27   16   26 1
  28   17   18 1
  29   18   27 1

#	End of record

