#	Name: ASD07300375
#	Creating user name:	WinNT
#	Creation time:	15. 06. 2019 21:09

#	Modifying user name:	WinNT
#	Modification time:	15. 06. 2019 21:09

#	Program:	/corina/corina34_cracker 3.40 0067  02.08.2006

@<TRIPOS>MOLECULE
ASD07300375
  28   28    0    0    0
SMALL
NO_CHARGES


@<TRIPOS>ATOM
   1 C1            -0.0748     1.2995    -0.3314 C.2     
   2 N2             0.0021    -0.0041     0.0020 N.am    
   3 O3             0.9313     1.9092    -0.6357 O.2     
   4 O4            -1.2673     1.9249    -0.3326 O.3     
   5 C5             1.4206    -1.8911     0.5465 C.ar    
   6 C6             1.2185    -0.6871    -0.1190 C.ar    
   7 C7             2.2423    -0.1712    -0.9072 C.ar    
   8 C8             3.4287    -0.8844    -0.9962 C.ar    
   9 C9             3.5545    -2.0753    -0.3044 C.ar    
  10 N10            2.5645    -2.5375     0.4347 N.ar    
  11 Cl11           4.7403    -0.2892    -1.9653 Cl      
  12 Cl12           0.1569    -2.5464     1.5402 Cl      
  13 C13           -1.2748     3.3291    -0.7021 C.3     
  14 C14           -0.7270     3.4858    -2.1220 C.3     
  15 C15           -2.7073     3.8635    -0.6463 C.3     
  16 C16           -0.3980     4.1177     0.2728 C.3     
  17 H17           -0.7852    -0.4691     0.3258 H       
  18 H18            2.1163     0.7614    -1.4370 H       
  19 H19            4.4761    -2.6346    -0.3702 H       
  20 H20           -1.3516     2.9240    -2.8165 H       
  21 H21           -0.7326     4.5399    -2.3994 H       
  22 H22            0.2936     3.1051    -2.1618 H       
  23 H23           -3.0976     3.7519     0.3653 H       
  24 H24           -2.7130     4.9176    -0.9236 H       
  25 H25           -3.3320     3.3017    -1.3408 H       
  26 H26            0.6226     3.7370     0.2330 H       
  27 H27           -0.4036     5.1718    -0.0046 H       
  28 H28           -0.7883     4.0061     1.2843 H       
@<TRIPOS>BOND
   1    1    2 am
   2    1    3 2
   3    1    4 1
   4    2    6 1
   5    2   17 1
   6    4   13 1
   7    5    6 ar
   8    5   10 ar
   9    5   12 1
  10    6    7 ar
  11    7    8 ar
  12    7   18 1
  13    8    9 ar
  14    8   11 1
  15    9   10 ar
  16    9   19 1
  17   13   14 1
  18   13   16 1
  19   13   15 1
  20   14   20 1
  21   14   21 1
  22   14   22 1
  23   15   23 1
  24   15   24 1
  25   15   25 1
  26   16   26 1
  27   16   27 1
  28   16   28 1

#	End of record

