#	Name: ASD01810180
#	Creating user name:	WinNT
#	Creation time:	15. 06. 2019 19:24

#	Modifying user name:	WinNT
#	Modification time:	15. 06. 2019 19:24

#	Program:	/corina/corina34_cracker 3.40 0067  02.08.2006

@<TRIPOS>MOLECULE
ASD01810180
  37   39    0    0    0
SMALL
NO_CHARGES


@<TRIPOS>ATOM
   1 C1             0.1374     1.1582     0.3838 C.ar    
   2 C2             0.2399    -0.2242     0.3576 C.ar    
   3 C3             1.4666    -0.8379     0.2055 C.ar    
   4 C4             2.6202    -0.0667     0.0757 C.ar    
   5 C5             2.5147     1.3345     0.1019 C.ar    
   6 C6             1.2663     1.9424     0.2570 C.ar    
   7 N7             3.8517    -0.6684    -0.0764 N.pl3   
   8 C8             4.9883     0.0278    -0.2040 C.2     
   9 C9             5.0104     1.4078    -0.1932 C.2     
  10 C10            3.7420     2.1383    -0.0364 C.2     
  11 O11            3.7084     3.3564    -0.0205 O.2     
  12 C12            6.2791     2.1358    -0.3357 C.2     
  13 O13            6.2878     3.4838    -0.3235 O.3     
  14 O14            7.3207     1.5223    -0.4645 O.2     
  15 C15            3.9193    -2.1317    -0.0987 C.3     
  16 C16            3.6005    -2.6282    -1.4853 C.ar    
  17 C17            3.4089    -1.7266    -2.5152 C.ar    
  18 C18            3.1164    -2.1821    -3.7874 C.ar    
  19 C19            3.0160    -3.5391    -4.0294 C.ar    
  20 C20            3.2086    -4.4411    -2.9994 C.ar    
  21 C21            3.5052    -3.9859    -1.7286 C.ar    
  22 F22            1.1646     3.2894     0.2818 F       
  23 F23            1.5493    -2.1861     0.1829 F       
  24 C24            3.7151    -4.9691    -0.6059 C.3     
  25 F25            3.6224    -6.2729    -1.1045 F       
  26 F26            4.9818    -4.7732    -0.0452 F       
  27 F27            2.7360    -4.7738     0.3741 F       
  28 H28           -0.8304     1.6235     0.4994 H       
  29 H29           -0.6502    -0.8276     0.4577 H       
  30 H30            5.9187    -0.5084    -0.3190 H       
  31 H31            7.1462     3.9181    -0.4206 H       
  32 H32            4.9225    -2.4534     0.1808 H       
  33 H33            3.1968    -2.5396     0.6083 H       
  34 H34            3.4874    -0.6661    -2.3260 H       
  35 H35            2.9660    -1.4775    -4.5919 H       
  36 H36            2.7869    -3.8949    -5.0230 H       
  37 H37            3.1298    -5.5015    -3.1885 H       
@<TRIPOS>BOND
   1    1    2 ar
   2    1    6 ar
   3    1   28 1
   4    2    3 ar
   5    2   29 1
   6    3    4 ar
   7    3   23 1
   8    4    5 ar
   9    4    7 1
  10    5    6 ar
  11    5   10 1
  12    6   22 1
  13    7    8 1
  14    7   15 1
  15    8    9 2
  16    8   30 1
  17    9   10 1
  18    9   12 1
  19   10   11 2
  20   12   13 1
  21   12   14 2
  22   13   31 1
  23   15   16 1
  24   15   32 1
  25   15   33 1
  26   16   17 ar
  27   16   21 ar
  28   17   18 ar
  29   17   34 1
  30   18   19 ar
  31   18   35 1
  32   19   20 ar
  33   19   36 1
  34   20   21 ar
  35   20   37 1
  36   21   24 1
  37   24   25 1
  38   24   26 1
  39   24   27 1

#	End of record

