#	Name: ASD01840081
#	Creating user name:	WinNT
#	Creation time:	15. 06. 2019 19:37

#	Modifying user name:	WinNT
#	Modification time:	15. 06. 2019 19:37

#	Program:	/corina/corina34_cracker 3.40 0067  02.08.2006

@<TRIPOS>MOLECULE
ASD01840081
  53   55    0    0    0
SMALL
NO_CHARGES


@<TRIPOS>ATOM
   1 C1            -2.1675    -0.3854     1.0711 C.ar    
   2 C2            -1.5352    -1.6272     1.0092 C.ar    
   3 N3            -2.2192    -2.7435     1.1524 N.ar    
   4 C4            -3.5394    -2.7438     1.3624 C.ar    
   5 C5            -4.2369    -1.5339     1.4362 C.ar    
   6 C6            -3.5131    -0.3263     1.2892 C.ar    
   7 S7            -4.6466    -4.0942     1.5795 S.3     
   8 C8            -6.0276    -3.0317     1.7664 C.2     
   9 C9            -5.6574    -1.7301     1.6677 C.2     
  10 Cl10          -1.2480     1.0745     0.8792 Cl      
  11 O11           -0.1970    -1.6859     0.7981 O.3     
  12 C12           -7.3541    -3.4732     1.9905 C.2     
  13 N13           -6.5566    -0.6788     1.7788 N.pl3   
  14 N14           -7.6206    -4.7917     2.0737 N.am    
  15 O15           -8.2544    -2.6613     2.1082 O.2     
  16 C16           -8.9931    -5.2484     2.3056 C.3     
  17 C17           -9.3603    -6.6543     1.8265 C.3     
  18 C18           -9.2012    -6.3730     3.3220 C.3     
  19 C19           -4.2193     1.0030     1.3608 C.3     
  20 C20            0.3950    -2.9855     0.7444 C.3     
  21 C21            1.8995    -2.8509     0.5008 C.3     
  22 N22            2.5298    -2.2190     1.6676 N.3     
  23 C23            3.9853    -2.4172     1.6514 C.3     
  24 C24            2.1937    -0.7908     1.7385 C.3     
  25 C25            2.7558    -0.0730     0.5097 C.3     
  26 O26            1.9577    -0.3886    -0.6328 O.3     
  27 C27            4.5816    -1.9265     2.9722 C.3     
  28 O28            4.0842    -2.7274     4.0461 O.3     
  29 H29           -6.2633     0.1748     2.1342 H       
  30 H30           -7.4784    -0.7977     1.5012 H       
  31 H31           -6.9036    -5.4383     1.9800 H       
  32 H32           -9.7619    -4.4783     2.2422 H       
  33 H33          -10.3708    -6.8092     1.4482 H       
  34 H34           -8.5807    -7.2394     1.3387 H       
  35 H35           -8.3169    -6.7730     3.8180 H       
  36 H36          -10.1070    -6.3428     3.9276 H       
  37 H37           -4.3249     1.3026     2.4035 H       
  38 H38           -3.6377     1.7528     0.8245 H       
  39 H39           -5.2062     0.9152     0.9064 H       
  40 H40            0.2246    -3.5016     1.6892 H       
  41 H41           -0.0550    -3.5564    -0.0678 H       
  42 H42            2.3321    -3.8392     0.3449 H       
  43 H43            2.0709    -2.2357    -0.3824 H       
  44 H44            4.2063    -3.4770     1.5245 H       
  45 H45            4.4195    -1.8541     0.8253 H       
  46 H46            1.1104    -0.6732     1.7640 H       
  47 H47            2.6273    -0.3598     2.6409 H       
  48 H48            2.7389     1.0037     0.6785 H       
  49 H49            3.7819    -0.3976     0.3371 H       
  50 H50            2.2095     0.0918    -1.4333 H       
  51 H51            5.6679    -2.0064     2.9324 H       
  52 H52            4.2994    -0.8862     3.1340 H       
  53 H53            4.4211    -2.4723     4.9158 H       
@<TRIPOS>BOND
   1    1    2 ar
   2    1   10 1
   3    1    6 ar
   4    2    3 ar
   5    2   11 1
   6    3    4 ar
   7    4    5 ar
   8    4    7 1
   9    5    6 ar
  10    5    9 1
  11    6   19 1
  12    7    8 1
  13    8    9 2
  14    8   12 1
  15    9   13 1
  16   11   20 1
  17   12   14 am
  18   12   15 2
  19   13   29 1
  20   13   30 1
  21   14   16 1
  22   14   31 1
  23   16   17 1
  24   16   18 1
  25   16   32 1
  26   17   18 1
  27   17   33 1
  28   17   34 1
  29   18   35 1
  30   18   36 1
  31   19   37 1
  32   19   38 1
  33   19   39 1
  34   20   21 1
  35   20   40 1
  36   20   41 1
  37   21   22 1
  38   21   42 1
  39   21   43 1
  40   22   24 1
  41   22   23 1
  42   23   27 1
  43   23   44 1
  44   23   45 1
  45   24   25 1
  46   24   46 1
  47   24   47 1
  48   25   26 1
  49   25   48 1
  50   25   49 1
  51   26   50 1
  52   27   28 1
  53   27   51 1
  54   27   52 1
  55   28   53 1

#	End of record

