#	Name: ASD03331401
#	Creating user name:	WinNT
#	Creation time:	15. 06. 2019 20:39

#	Modifying user name:	WinNT
#	Modification time:	15. 06. 2019 20:39

#	Program:	/corina/corina34_cracker 3.40 0067  02.08.2006

@<TRIPOS>MOLECULE
ASD03331401
  64   67    0    0    0
SMALL
NO_CHARGES


@<TRIPOS>ATOM
   1 C1             0.0757     3.5848    -2.7489 C.3     
   2 O2             0.0092     2.4048    -1.9441 O.3     
   3 C3             0.4158     1.2040    -2.6173 C.3     
   4 C4             1.7484     1.4656    -3.2628 C.2     
   5 C5             2.2656     2.7099    -3.4389 C.2     
   6 C6             1.5437     3.9595    -3.0032 C.3     
   7 C7             2.6951     0.5763    -3.7912 C.2     
   8 N8             3.7003     1.3110    -4.2409 N.2     
   9 N9             3.4623     2.5627    -4.0403 N.pl3   
  10 C10            2.5908    -0.8958    -3.8372 C.2     
  11 O11            1.6071    -1.4499    -3.3861 O.2     
  12 N12            3.5861    -1.6253    -4.3791 N.am    
  13 C13            3.4826    -3.0859    -4.4247 C.3     
  14 C14            2.6970    -3.5029    -5.6696 C.3     
  15 C15            4.8640    -3.6859    -4.4781 C.2     
  16 C16            4.3201     3.6128    -4.3952 C.ar    
  17 C17            4.8329     3.6878    -5.6855 C.ar    
  18 C18            5.6789     4.7259    -6.0323 C.ar    
  19 C19            6.0142     5.6875    -5.0976 C.ar    
  20 C20            5.5052     5.6151    -3.8125 C.ar    
  21 C21            4.6551     4.5833    -3.4610 C.ar    
  22 C22            3.3224    -2.8568    -6.9075 C.3     
  23 C23            2.7389    -5.0256    -5.8128 C.3     
  24 C24            1.2440    -3.0433    -5.5334 C.3     
  25 N25            5.1096    -4.8667    -3.8764 N.am    
  26 O26            5.7547    -3.1063    -5.0626 O.2     
  27 C27            6.4228    -5.5199    -3.7750 C.3     
  28 Cl28           5.9295     6.8254    -2.6426 Cl      
  29 F29            4.5057     2.7479    -6.5991 F       
  30 C30            6.2233    -6.8290    -2.9824 C.3     
  31 C31            4.9139    -6.5619    -2.1941 C.3     
  32 C32            4.1070    -5.7140    -3.2054 C.3     
  33 C33            6.9568    -5.8347    -5.1737 C.3     
  34 O34            6.1083    -6.7976    -5.8020 O.3     
  35 H35           -0.4218     3.4022    -3.7014 H       
  36 H36           -0.4232     4.4045    -2.2320 H       
  37 H37            0.5078     0.3906    -1.8976 H       
  38 H38           -0.3181     0.9418    -3.3794 H       
  39 H39            1.6021     4.7131    -3.7886 H       
  40 H40            1.9910     4.3443    -2.0867 H       
  41 H41            4.3709    -1.1832    -4.7390 H       
  42 H42            2.9662    -3.4416    -3.5331 H       
  43 H43            6.0780     4.7850    -7.0341 H       
  44 H44            6.6752     6.4969    -5.3705 H       
  45 H45            4.2584     4.5278    -2.4580 H       
  46 H46            4.3575    -3.1843    -7.0045 H       
  47 H47            2.7627    -3.1539    -7.7944 H       
  48 H48            3.2925    -1.7720    -6.8055 H       
  49 H49            2.2308    -5.4845    -4.9647 H       
  50 H50            2.2398    -5.3176    -6.7368 H       
  51 H51            3.7762    -5.3597    -5.8390 H       
  52 H52            1.2141    -1.9585    -5.4314 H       
  53 H53            0.6843    -3.3404    -6.4203 H       
  54 H54            0.7985    -3.5036    -4.6515 H       
  55 H55            7.1205    -4.8697    -3.2472 H       
  56 H56            6.1003    -7.6746    -3.6592 H       
  57 H57            7.0566    -6.9976    -2.3003 H       
  58 H58            4.3988    -7.4946    -1.9647 H       
  59 H59            5.1140    -5.9942    -1.2853 H       
  60 H60            3.3731    -5.0990    -2.6845 H       
  61 H61            3.6147    -6.3588    -3.9334 H       
  62 H62            6.9745    -4.9222    -5.7697 H       
  63 H63            7.9668    -6.2369    -5.0950 H       
  64 H64            6.3872    -7.0450    -6.6943 H       
@<TRIPOS>BOND
   1    1    2 1
   2    1    6 1
   3    1   35 1
   4    1   36 1
   5    2    3 1
   6    3    4 1
   7    3   37 1
   8    3   38 1
   9    4    5 2
  10    4    7 1
  11    5    6 1
  12    5    9 1
  13    6   39 1
  14    6   40 1
  15    7    8 2
  16    7   10 1
  17    8    9 1
  18    9   16 1
  19   10   11 2
  20   10   12 am
  21   12   13 1
  22   12   41 1
  23   13   14 1
  24   13   15 1
  25   13   42 1
  26   14   22 1
  27   14   23 1
  28   14   24 1
  29   15   25 am
  30   15   26 2
  31   16   17 ar
  32   16   21 ar
  33   17   18 ar
  34   17   29 1
  35   18   19 ar
  36   18   43 1
  37   19   20 ar
  38   19   44 1
  39   20   21 ar
  40   20   28 1
  41   21   45 1
  42   22   46 1
  43   22   47 1
  44   22   48 1
  45   23   49 1
  46   23   50 1
  47   23   51 1
  48   24   52 1
  49   24   53 1
  50   24   54 1
  51   25   27 1
  52   25   32 1
  53   27   30 1
  54   27   33 1
  55   27   55 1
  56   30   31 1
  57   30   56 1
  58   30   57 1
  59   31   32 1
  60   31   58 1
  61   31   59 1
  62   32   60 1
  63   32   61 1
  64   33   34 1
  65   33   62 1
  66   33   63 1
  67   34   64 1

#	End of record

