#	Name: ASD00170486
#	Creating user name:	WinNT
#	Creation time:	15. 06. 2019 18:32

#	Modifying user name:	WinNT
#	Modification time:	15. 06. 2019 18:32

#	Program:	/corina/corina34_cracker 3.40 0067  02.08.2006

@<TRIPOS>MOLECULE
ASD00170486
  46   50    0    0    0
SMALL
NO_CHARGES


@<TRIPOS>ATOM
   1 C1             1.1031     1.3773     1.3121 C.ar    
   2 C2             0.9491     0.0066     1.1775 C.ar    
   3 C3             1.9281    -0.7446     0.5158 C.ar    
   4 C4             3.0479    -0.1067    -0.0009 C.ar    
   5 C5             3.1982     1.2664     0.1361 C.ar    
   6 C6             2.2175     2.0082     0.7971 C.ar    
   7 C7             4.2571    -0.6055    -0.7494 C.3     
   8 C8             5.1023     0.6202    -1.0201 C.2     
   9 C9             4.4810     1.6971    -0.5040 C.2     
  10 S10            6.6128     1.1275    -1.7744 S.3     
  11 C11            6.2796     2.7947    -1.3231 C.2     
  12 N12            5.1556     2.8527    -0.6922 N.2     
  13 N13            7.0977     3.8777    -1.6013 N.pl3   
  14 C14            1.7703    -2.2121     0.3684 C.ar    
  15 C15            0.7278    -2.7287    -0.3993 C.ar    
  16 C16            0.5839    -4.0935    -0.5349 C.ar    
  17 C17            1.4761    -4.9528     0.0922 C.ar    
  18 C18            2.5153    -4.4411     0.8579 C.ar    
  19 C19            2.6677    -3.0771     0.9925 C.ar    
  20 O20            1.3319    -6.2970    -0.0432 O.3     
  21 C21            0.5822    -6.9543     0.8799 C.ar    
  22 O22           -0.1504    -0.6077     1.6873 O.3     
  23 C23           -1.1078     0.2209     2.3499 C.3     
  24 C24            0.4948    -8.3388     0.8462 C.ar    
  25 C25           -0.2676    -9.0046     1.7861 C.ar    
  26 C26           -0.9438    -8.2927     2.7598 C.ar    
  27 C27           -0.8584    -6.9131     2.7957 C.ar    
  28 C28           -0.0927    -6.2428     1.8616 C.ar    
  29 H29            0.3447     1.9557     1.8188 H       
  30 H30            2.3310     3.0767     0.9057 H       
  31 H31            4.8113    -1.3177    -0.1380 H       
  32 H32            3.9544    -1.0692    -1.6882 H       
  33 H33            7.9299     3.7460    -2.0819 H       
  34 H34            6.8383     4.7676    -1.3154 H       
  35 H35            0.0332    -2.0608    -0.8871 H       
  36 H36           -0.2239    -4.4943    -1.1293 H       
  37 H37            3.2076    -5.1119     1.3449 H       
  38 H38            3.4761    -2.6797     1.5882 H       
  39 H39           -1.9337    -0.3935     2.7084 H       
  40 H40           -0.6332     0.7204     3.1945 H       
  41 H41           -1.4866     0.9677     1.6522 H       
  42 H42            1.0221    -8.8952     0.0855 H       
  43 H43           -0.3360   -10.0821     1.7603 H       
  44 H44           -1.5399    -8.8152     3.4933 H       
  45 H45           -1.3877    -6.3594     3.5570 H       
  46 H46           -0.0264    -5.1652     1.8900 H       
@<TRIPOS>BOND
   1    1    2 ar
   2    1    6 ar
   3    1   29 1
   4    2    3 ar
   5    2   22 1
   6    3    4 ar
   7    3   14 1
   8    4    5 ar
   9    4    7 1
  10    5    6 ar
  11    5    9 1
  12    6   30 1
  13    7    8 1
  14    7   31 1
  15    7   32 1
  16    8    9 2
  17    8   10 1
  18    9   12 1
  19   10   11 1
  20   11   12 2
  21   11   13 1
  22   13   33 1
  23   13   34 1
  24   14   15 ar
  25   14   19 ar
  26   15   16 ar
  27   15   35 1
  28   16   17 ar
  29   16   36 1
  30   17   18 ar
  31   17   20 1
  32   18   19 ar
  33   18   37 1
  34   19   38 1
  35   20   21 1
  36   21   24 ar
  37   21   28 ar
  38   22   23 1
  39   23   39 1
  40   23   40 1
  41   23   41 1
  42   24   25 ar
  43   24   42 1
  44   25   26 ar
  45   25   43 1
  46   26   27 ar
  47   26   44 1
  48   27   28 ar
  49   27   45 1
  50   28   46 1

#	End of record

