#	Name: ASD01150857
#	Creating user name:	WinNT
#	Creation time:	15. 06. 2019 19:05

#	Modifying user name:	WinNT
#	Modification time:	15. 06. 2019 19:05

#	Program:	/corina/corina34_cracker 3.40 0067  02.08.2006

@<TRIPOS>MOLECULE
ASD01150857
  49   51    0    0    0
SMALL
NO_CHARGES


@<TRIPOS>ATOM
   1 C1            -0.0169     1.3919     0.0097 C.ar    
   2 C2             0.0021    -0.0041     0.0020 C.ar    
   3 C3             1.2238    -0.6803    -0.0133 C.ar    
   4 C4             2.4042     0.0341    -0.0207 C.ar    
   5 C5             2.3782     1.4203    -0.0130 C.ar    
   6 C6             1.1694     2.0954     0.0021 C.ar    
   7 C7            -1.2655    -0.7629     0.0105 C.2     
   8 N8            -1.2442    -2.1105     0.0031 N.am    
   9 O9            -2.3277    -0.1719     0.0243 O.2     
  10 C10           -2.4368    -2.8245     0.0111 C.2     
  11 N11           -3.6661    -2.3033     0.0256 N.2     
  12 C12           -4.5645    -3.2668     0.0296 C.2     
  13 N13           -3.9342    -4.4697     0.0174 N.pl3   
  14 C14           -2.5632    -4.2080    -0.0006 C.2     
  15 S15           -6.3106    -3.0317     0.0482 S.3     
  16 C16           -6.3841    -1.2232     0.0577 C.3     
  17 C17           -4.5712    -5.7890     0.0178 C.3     
  18 C18           -1.5192    -5.1547    -0.0181 C.2     
  19 O19           -1.8047    -6.4748    -0.0185 O.3     
  20 O20           -0.3598    -4.7825    -0.0329 O.2     
  21 C21           -0.6975    -7.3780    -0.0367 C.3     
  22 C22           -1.2140    -8.8181    -0.0342 C.3     
  23 Cl23           3.8671     2.3130    -0.0219 Cl      
  24 C24           -4.8036    -6.2350    -1.4028 C.ar    
  25 C25           -3.8322    -6.9600    -2.0674 C.ar    
  26 C26           -4.0454    -7.3690    -3.3705 C.ar    
  27 C27           -5.2302    -7.0534    -4.0089 C.ar    
  28 C28           -6.2020    -6.3292    -3.3441 C.ar    
  29 C29           -5.9906    -5.9239    -2.0395 C.ar    
  30 Cl30           3.9243    -0.8041    -0.0392 Cl      
  31 H31           -0.9589     1.9201     0.0170 H       
  32 H32            1.2446    -1.7601    -0.0189 H       
  33 H33            1.1555     3.1753     0.0077 H       
  34 H34           -0.3967    -2.5821    -0.0079 H       
  35 H35           -5.8944    -0.8350    -0.8354 H       
  36 H36           -7.4256    -0.9019     0.0697 H       
  37 H37           -5.8765    -0.8436     0.9444 H       
  38 H38           -3.9227    -6.5054     0.5220 H       
  39 H39           -5.5255    -5.7316     0.5413 H       
  40 H40           -0.1035    -7.2065    -0.9344 H       
  41 H41           -0.0789    -7.2123     0.8454 H       
  42 H42           -1.8080    -8.9895     0.8635 H       
  43 H43           -1.8326    -8.9838    -0.9163 H       
  44 H44           -0.3695    -9.5071    -0.0481 H       
  45 H45           -2.9066    -7.2065    -1.5686 H       
  46 H46           -3.2862    -7.9348    -3.8899 H       
  47 H47           -5.3965    -7.3724    -5.0273 H       
  48 H48           -7.1275    -6.0824    -3.8430 H       
  49 H49           -6.7498    -5.3581    -1.5200 H       
@<TRIPOS>BOND
   1    1    2 ar
   2    1    6 ar
   3    1   31 1
   4    2    3 ar
   5    2    7 1
   6    3    4 ar
   7    3   32 1
   8    4    5 ar
   9    4   30 1
  10    5    6 ar
  11    5   23 1
  12    6   33 1
  13    7    8 am
  14    7    9 2
  15    8   10 1
  16    8   34 1
  17   10   11 1
  18   10   14 2
  19   11   12 2
  20   12   13 1
  21   12   15 1
  22   13   14 1
  23   13   17 1
  24   14   18 1
  25   15   16 1
  26   16   35 1
  27   16   36 1
  28   16   37 1
  29   17   24 1
  30   17   38 1
  31   17   39 1
  32   18   19 1
  33   18   20 2
  34   19   21 1
  35   21   22 1
  36   21   40 1
  37   21   41 1
  38   22   42 1
  39   22   43 1
  40   22   44 1
  41   24   25 ar
  42   24   29 ar
  43   25   26 ar
  44   25   45 1
  45   26   27 ar
  46   26   46 1
  47   27   28 ar
  48   27   47 1
  49   28   29 ar
  50   28   48 1
  51   29   49 1

#	End of record

