#	Name: ASD01881920
#	Creating user name:	WinNT
#	Creation time:	15. 06. 2019 19:43

#	Modifying user name:	WinNT
#	Modification time:	15. 06. 2019 19:43

#	Program:	/corina/corina34_cracker 3.40 0067  02.08.2006

@<TRIPOS>MOLECULE
ASD01881920
  59   63    0    0    0
SMALL
NO_CHARGES


@<TRIPOS>ATOM
   1 N1             0.4481     0.1661     0.9385 N.pl3   
   2 N2             0.6764    -1.0967     1.0506 N.2     
   3 N3             1.9317    -1.3645     0.9611 N.2     
   4 C4             2.6182    -0.2190     0.7755 C.ar    
   5 C5             1.6516     0.8043     0.7581 C.ar    
   6 C6             3.9681     0.1051     0.6150 C.ar    
   7 C7             4.3338     1.4253     0.4415 C.ar    
   8 C8             3.3678     2.4287     0.4261 C.ar    
   9 C9             2.0441     2.1247     0.5813 C.ar    
  10 C10           -0.8671     0.8095     0.9884 C.3     
  11 C11           -1.1971     1.1840     2.4347 C.3     
  12 C12           -2.4827     1.9752     2.6838 C.3     
  13 C13           -2.4023     0.5007     3.0839 C.3     
  14 Br14           5.2834    -1.2534     0.6357 Br      
  15 O15            5.6455     1.7480     0.2851 O.3     
  16 C16            5.9568     3.1316     0.1099 C.3     
  17 C17            7.4694     3.2979    -0.0487 C.3     
  18 N18            7.9160     2.5901    -1.2560 N.3     
  19 C19            9.3492     2.8054    -1.4925 C.3     
  20 C20            9.8091     1.9407    -2.6684 C.3     
  21 C21            9.0048     2.3154    -3.9164 C.3     
  22 C22            7.5128     2.1283    -3.6277 C.3     
  23 C23            7.1195     2.9876    -2.4239 C.3     
  24 F24            9.2528     3.6516    -4.2487 F       
  25 C25            9.4174     1.4126    -5.0807 C.3     
  26 C26            8.6253     1.7823    -6.3082 C.ar    
  27 C27            9.1093     2.7387    -7.1810 C.ar    
  28 C28            8.3827     3.0779    -8.3070 C.ar    
  29 C29            7.1722     2.4603    -8.5604 C.ar    
  30 C30            6.6886     1.5033    -7.6880 C.ar    
  31 C31            7.4173     1.1610    -6.5643 C.ar    
  32 H32            3.6676     3.4572     0.2899 H       
  33 H33            1.3040     2.9111     0.5678 H       
  34 H34           -0.8547     1.7097     0.3738 H       
  35 H35           -1.6228     0.1214     0.6098 H       
  36 H36           -0.3396     1.4036     3.0708 H       
  37 H37           -2.4711     2.7152     3.4841 H       
  38 H38           -3.0933     2.2291     1.8174 H       
  39 H39           -2.9601    -0.2156     2.4807 H       
  40 H40           -2.3379     0.2705     4.1474 H       
  41 H41            5.4545     3.5070    -0.7816 H       
  42 H42            5.6189     3.6931     0.9809 H       
  43 H43            7.7111     4.3570    -0.1381 H       
  44 H44            7.9741     2.8825     0.8236 H       
  45 H45            9.5253     3.8560    -1.7235 H       
  46 H46            9.9099     2.5313    -0.5989 H       
  47 H47           10.8694     2.1125    -2.8537 H       
  48 H48            9.6459     0.8891    -2.4325 H       
  49 H49            6.9325     2.4341    -4.4982 H       
  50 H50            7.3135     1.0797    -3.4068 H       
  51 H51            6.0608     2.8458    -2.2068 H       
  52 H52            7.3061     4.0373    -2.6506 H       
  53 H53           10.4808     1.5422    -5.2818 H       
  54 H54            9.2209     0.3723    -4.8211 H       
  55 H55           10.0551     3.2212    -6.9831 H       
  56 H56            8.7605     3.8256    -8.9886 H       
  57 H57            6.6041     2.7258    -9.4397 H       
  58 H58            5.7427     1.0210    -7.8858 H       
  59 H59            7.0412     0.4106    -5.8847 H       
@<TRIPOS>BOND
   1    1    2 1
   2    1    5 1
   3    1   10 1
   4    2    3 2
   5    3    4 1
   6    4    5 ar
   7    4    6 ar
   8    5    9 ar
   9    6    7 ar
  10    6   14 1
  11    7    8 ar
  12    7   15 1
  13    8    9 ar
  14    8   32 1
  15    9   33 1
  16   10   11 1
  17   10   34 1
  18   10   35 1
  19   11   12 1
  20   11   13 1
  21   11   36 1
  22   12   13 1
  23   12   37 1
  24   12   38 1
  25   13   39 1
  26   13   40 1
  27   15   16 1
  28   16   17 1
  29   16   41 1
  30   16   42 1
  31   17   18 1
  32   17   43 1
  33   17   44 1
  34   18   19 1
  35   18   23 1
  36   19   20 1
  37   19   45 1
  38   19   46 1
  39   20   21 1
  40   20   47 1
  41   20   48 1
  42   21   22 1
  43   21   24 1
  44   21   25 1
  45   22   23 1
  46   22   49 1
  47   22   50 1
  48   23   51 1
  49   23   52 1
  50   25   26 1
  51   25   53 1
  52   25   54 1
  53   26   27 ar
  54   26   31 ar
  55   27   28 ar
  56   27   55 1
  57   28   29 ar
  58   28   56 1
  59   29   30 ar
  60   29   57 1
  61   30   31 ar
  62   30   58 1
  63   31   59 1

#	End of record

