#	Name: ASD04840078
#	Creating user name:	WinNT
#	Creation time:	15. 06. 2019 20:52

#	Modifying user name:	WinNT
#	Modification time:	15. 06. 2019 20:52

#	Program:	/corina/corina34_cracker 3.40 0067  02.08.2006

@<TRIPOS>MOLECULE
ASD04840078
  36   39    0    0    0
SMALL
NO_CHARGES


@<TRIPOS>ATOM
   1 C1            -0.0171     1.4122     0.0098 C.ar    
   2 C2            -1.2616     2.0880     0.0193 C.ar    
   3 C3            -2.4539     1.3437     0.0204 C.ar    
   4 C4            -2.4093    -0.0182     0.0128 C.ar    
   5 C5            -1.1975    -0.6979     0.0035 C.ar    
   6 C6             0.0021    -0.0041     0.0020 C.ar    
   7 C7             1.2872    -0.7337    -0.0141 C.ar    
   8 C8             2.2090    -0.6455     1.1183 C.ar    
   9 C9             3.4312    -1.3644     1.0559 C.ar    
  10 C10            3.7253    -2.1363    -0.0781 C.ar    
  11 C11            2.8499    -2.2016    -1.1189 C.ar    
  12 C12            1.6399    -1.5196    -1.1002 C.ar    
  13 N13            1.9189     0.0880     2.1869 N.ar    
  14 C14            2.7507     0.1677     3.2097 C.ar    
  15 C15            3.9749    -0.5174     3.2126 C.ar    
  16 C16            4.3257    -1.2862     2.1405 C.ar    
  17 C17            2.3831     0.9991     4.3791 C.2     
  18 O18            3.1380     1.0817     5.3266 O.2     
  19 O19            1.2117     1.6634     4.3915 O.3     
  20 C20           -1.2811     3.4936     0.0270 C.ar    
  21 C21           -0.1076     4.1836     0.0252 C.ar    
  22 C22            1.1155     3.5169     0.0154 C.ar    
  23 C23            1.1712     2.1557     0.0025 C.ar    
  24 H24           -3.4068     1.8520     0.0277 H       
  25 H25           -3.3322    -0.5792     0.0145 H       
  26 H26           -1.1903    -1.7779    -0.0021 H       
  27 H27            4.6551    -2.6836    -0.1261 H       
  28 H28            3.1011    -2.8030    -1.9800 H       
  29 H29            0.9687    -1.5992    -1.9425 H       
  30 H30            4.6385    -0.4365     4.0609 H       
  31 H31            5.2639    -1.8209     2.1250 H       
  32 H32            1.0156     2.1930     5.1765 H       
  33 H33           -2.2223     4.0234     0.0340 H       
  34 H34           -0.1252     5.2634     0.0312 H       
  35 H35            2.0326     4.0873     0.0135 H       
  36 H36            2.1264     1.6518    -0.0086 H       
@<TRIPOS>BOND
   1    1    6 ar
   2    1   23 ar
   3    1    2 ar
   4    2    3 ar
   5    2   20 ar
   6    3    4 ar
   7    3   24 1
   8    4    5 ar
   9    4   25 1
  10    5    6 ar
  11    5   26 1
  12    6    7 1
  13    7    8 ar
  14    7   12 ar
  15    8   13 ar
  16    8    9 ar
  17    9   10 ar
  18    9   16 ar
  19   10   11 ar
  20   10   27 1
  21   11   12 ar
  22   11   28 1
  23   12   29 1
  24   13   14 ar
  25   14   15 ar
  26   14   17 1
  27   15   16 ar
  28   15   30 1
  29   16   31 1
  30   17   18 2
  31   17   19 1
  32   19   32 1
  33   20   21 ar
  34   20   33 1
  35   21   22 ar
  36   21   34 1
  37   22   23 ar
  38   22   35 1
  39   23   36 1

#	End of record

