#	Name: ASD01813644
#	Creating user name:	WinNT
#	Creation time:	15. 06. 2019 19:30

#	Modifying user name:	WinNT
#	Modification time:	15. 06. 2019 19:30

#	Program:	/corina/corina34_cracker 3.40 0067  02.08.2006

@<TRIPOS>MOLECULE
ASD01813644
  46   50    0    0    0
SMALL
NO_CHARGES


@<TRIPOS>ATOM
   1 C1             0.0980     1.4754     0.3568 C.ar    
   2 C2             0.0800     0.0882     0.3490 C.ar    
   3 C3             1.2501    -0.6307     0.2181 C.ar    
   4 C4             2.4672     0.0383     0.0919 C.ar    
   5 C5             2.4807     1.4430     0.1003 C.ar    
   6 C6             1.2892     2.1559     0.2335 C.ar    
   7 N7             3.6443    -0.6677    -0.0386 N.pl3   
   8 C8             4.8373    -0.0728    -0.1612 C.2     
   9 C9             4.9773     1.3006    -0.1661 C.2     
  10 C10            3.7745     2.1383    -0.0339 C.2     
  11 O11            3.8448     3.3548    -0.0328 O.2     
  12 C12            6.3051     1.9159    -0.3020 C.2     
  13 O13            6.4289     3.2582    -0.3053 O.3     
  14 O14            7.2918     1.2142    -0.4113 O.2     
  15 C15            3.5871    -2.1316    -0.0427 C.3     
  16 C16            3.4445    -2.6248    -1.4595 C.ar    
  17 C17            4.5593    -2.7690    -2.2628 C.ar    
  18 N18            4.4487    -3.1998    -3.5038 N.ar    
  19 C19            3.2696    -3.5108    -4.0295 C.ar    
  20 C20            2.1027    -3.3881    -3.2741 C.ar    
  21 C21            2.1919    -2.9439    -1.9677 C.ar    
  22 F22            1.2171    -1.9813     0.2126 F       
  23 C23            3.1924    -3.9907    -5.4273 C.2     
  24 C24            4.3710    -4.1435    -6.2775 C.ar    
  25 C25            4.0380    -4.6099    -7.5494 C.ar    
  26 S26            2.2991    -4.8467    -7.6663 S.3     
  27 C27            2.0428    -4.3246    -6.0131 C.2     
  28 C28            5.7248    -3.8892    -5.9776 C.ar    
  29 C29            6.6908    -4.0954    -6.9147 C.ar    
  30 C30            6.3581    -4.5595    -8.1798 C.ar    
  31 C31            5.0456    -4.8158    -8.4981 C.ar    
  32 H32           -0.8268     2.0243     0.4555 H       
  33 H33           -0.8601    -0.4345     0.4467 H       
  34 H34            1.3005     3.2358     0.2395 H       
  35 H35            5.7197    -0.6878    -0.2593 H       
  36 H36            7.3223     3.6165    -0.3971 H       
  37 H37            4.5033    -2.5323     0.3910 H       
  38 H38            2.7314    -2.4634     0.5454 H       
  39 H39            5.5349    -2.5251    -1.8688 H       
  40 H40            1.1440    -3.6409    -3.7023 H       
  41 H41            1.3062    -2.8389    -1.3587 H       
  42 H42            1.0768    -4.2743    -5.5327 H       
  43 H43            5.9977    -3.5278    -4.9971 H       
  44 H44            7.7240    -3.8959    -6.6719 H       
  45 H45            7.1322    -4.7197    -8.9157 H       
  46 H46            4.7914    -5.1772    -9.4836 H       
@<TRIPOS>BOND
   1    1    2 ar
   2    1    6 ar
   3    1   32 1
   4    2    3 ar
   5    2   33 1
   6    3    4 ar
   7    3   22 1
   8    4    5 ar
   9    4    7 1
  10    5    6 ar
  11    5   10 1
  12    6   34 1
  13    7    8 1
  14    7   15 1
  15    8    9 2
  16    8   35 1
  17    9   10 1
  18    9   12 1
  19   10   11 2
  20   12   13 1
  21   12   14 2
  22   13   36 1
  23   15   16 1
  24   15   37 1
  25   15   38 1
  26   16   17 ar
  27   16   21 ar
  28   17   18 ar
  29   17   39 1
  30   18   19 ar
  31   19   20 ar
  32   19   23 1
  33   20   21 ar
  34   20   40 1
  35   21   41 1
  36   23   24 1
  37   23   27 2
  38   24   25 ar
  39   24   28 ar
  40   25   26 1
  41   25   31 ar
  42   26   27 1
  43   27   42 1
  44   28   29 ar
  45   28   43 1
  46   29   30 ar
  47   29   44 1
  48   30   31 ar
  49   30   45 1
  50   31   46 1

#	End of record

