#	Name: ASD02560190
#	Creating user name:	WinNT
#	Creation time:	15. 06. 2019 20:24

#	Modifying user name:	WinNT
#	Modification time:	15. 06. 2019 20:24

#	Program:	/corina/corina34_cracker 3.40 0067  02.08.2006

@<TRIPOS>MOLECULE
ASD02560190
  54   58    0    0    0
SMALL
NO_CHARGES


@<TRIPOS>ATOM
   1 C1            -0.0116     1.3542    -0.0017 C.ar    
   2 C2             0.0334    -0.0505     0.0063 C.ar    
   3 C3             1.2342    -0.6917     0.0055 C.ar    
   4 C4             2.4297     0.0217    -0.0031 C.ar    
   5 C5             2.4282     1.3988    -0.0106 C.ar    
   6 C6             1.1986     2.0904    -0.0105 C.ar    
   7 C7             1.1520     3.4935    -0.0190 C.ar    
   8 C8            -0.0527     4.1278    -0.0186 C.ar    
   9 C9            -1.2437     3.4045    -0.0093 C.ar    
  10 C10           -1.2367     2.0435    -0.0068 C.ar    
  11 C11           -1.2464    -0.8461     0.0162 C.3     
  12 C12           -1.4930    -1.8021    -1.1525 C.3     
  13 C13           -1.1372    -2.3574     0.2280 C.3     
  14 N14            3.6361     2.1061    -0.0187 N.pl3   
  15 C15            4.3464     2.5183    -1.1142 C.2     
  16 N16            5.4106     3.1440    -0.6684 N.2     
  17 N17            5.4103     3.1488     0.6166 N.2     
  18 C18            4.3517     2.5359     1.0680 C.2     
  19 S19            3.9141     2.2578    -2.8023 S.3     
  20 C20            5.3110     3.0739    -3.6140 C.3     
  21 C21            5.1513     2.9741    -5.1092 C.2     
  22 N22            6.0791     3.5151    -5.9236 N.am    
  23 C23            5.9755     3.3498    -7.3097 C.ar    
  24 C24            4.6367     2.9618    -9.2608 C.ar    
  25 C25            5.7705     3.0230   -10.0503 C.ar    
  26 C26            7.0076     3.2415    -9.4730 C.ar    
  27 C27            7.1139     3.4051    -8.1046 C.ar    
  28 C28            4.7357     3.1244    -7.8929 C.ar    
  29 S29            5.6391     2.8143   -11.7950 S.o2    
  30 O30            6.9151     2.3792   -12.2442 O.2     
  31 O31            4.4434     2.0810   -12.0225 O.2     
  32 N32            5.3991     4.3155   -12.4515 N.am    
  33 O33            4.1880     2.4070    -5.5798 O.2     
  34 Br34           3.8915     2.2832     2.8847 Br      
  35 Cl35           8.6674     3.6800    -7.3801 Cl      
  36 H36            1.2598    -1.7713     0.0121 H       
  37 H37            3.3692    -0.5110    -0.0035 H       
  38 H38            2.0672     4.0668    -0.0255 H       
  39 H39           -0.0857     5.2073    -0.0251 H       
  40 H40           -2.1863     3.9317    -0.0087 H       
  41 H41           -2.1675     1.4960    -0.0047 H       
  42 H42           -2.1119    -0.3390     0.4429 H       
  43 H43           -2.5207    -1.9244    -1.4946 H       
  44 H44           -0.7295    -1.8557    -1.9286 H       
  45 H45           -0.1396    -2.7762     0.3602 H       
  46 H46           -1.9307    -2.8449     0.7943 H       
  47 H47            5.3389     4.1234    -3.3209 H       
  48 H48            6.2396     2.5881    -3.3145 H       
  49 H49            6.8186     4.0189    -5.5491 H       
  50 H50            3.6719     2.7910    -9.7151 H       
  51 H51            7.8912     3.2888   -10.0923 H       
  52 H52            3.8497     3.0761    -7.2773 H       
  53 H53            5.3567     5.0954   -11.8763 H       
  54 H54            5.3010     4.4150   -13.4114 H       
@<TRIPOS>BOND
   1    1    2 ar
   2    1    6 ar
   3    1   10 ar
   4    2    3 ar
   5    2   11 1
   6    3    4 ar
   7    3   36 1
   8    4    5 ar
   9    4   37 1
  10    5    6 ar
  11    5   14 1
  12    6    7 ar
  13    7    8 ar
  14    7   38 1
  15    8    9 ar
  16    8   39 1
  17    9   10 ar
  18    9   40 1
  19   10   41 1
  20   11   12 1
  21   11   13 1
  22   11   42 1
  23   12   13 1
  24   12   43 1
  25   12   44 1
  26   13   45 1
  27   13   46 1
  28   14   15 1
  29   14   18 1
  30   15   16 2
  31   15   19 1
  32   16   17 1
  33   17   18 2
  34   18   34 1
  35   19   20 1
  36   20   21 1
  37   20   47 1
  38   20   48 1
  39   21   22 am
  40   21   33 2
  41   22   23 1
  42   22   49 1
  43   23   28 ar
  44   23   27 ar
  45   24   25 ar
  46   24   28 ar
  47   24   50 1
  48   25   26 ar
  49   25   29 1
  50   26   27 ar
  51   26   51 1
  52   27   35 1
  53   28   52 1
  54   29   30 2
  55   29   31 2
  56   29   32 am
  57   32   53 1
  58   32   54 1

#	End of record

