#	Name: ASD00170238
#	Creating user name:	WinNT
#	Creation time:	15. 06. 2019 18:31

#	Modifying user name:	WinNT
#	Modification time:	15. 06. 2019 18:31

#	Program:	/corina/corina34_cracker 3.40 0067  02.08.2006

@<TRIPOS>MOLECULE
ASD00170238
  24   25    0    0    0
SMALL
NO_CHARGES


@<TRIPOS>ATOM
   1 C1            -0.0161     1.3326     0.0094 C.2     
   2 C2             0.0021    -0.0041     0.0020 C.2     
   3 C3            -1.3336    -0.5765     0.0108 C.2     
   4 C4            -2.3263     0.3666     0.0249 C.2     
   5 S5            -1.6653     1.9354     0.0208 S.3     
   6 N6            -3.6783     0.0838     0.0355 N.pl3   
   7 C7            -1.5917    -2.0160     0.0050 C.2     
   8 O8            -1.7213    -2.6734    -1.1659 O.3     
   9 O9            -1.6897    -2.6206     1.0562 O.2     
  10 C10            1.2252     2.2044     0.0022 C.3     
  11 C11            2.4303     1.3486     0.4017 C.3     
  12 C12            2.4403     0.0733    -0.4464 C.3     
  13 C13            1.2807    -0.8267    -0.0133 C.3     
  14 H14           -3.9811    -0.8377     0.0331 H       
  15 H15           -4.3249     0.8068     0.0453 H       
  16 H16           -1.8901    -3.6205    -1.0686 H       
  17 H17            1.3807     2.6106    -0.9972 H       
  18 H18            1.1033     3.0196     0.7154 H       
  19 H19            3.3490     1.9091     0.2283 H       
  20 H20            2.3563     1.0845     1.4566 H       
  21 H21            2.3258     0.3345    -1.4984 H       
  22 H22            3.3837    -0.4532    -0.3014 H       
  23 H23            1.4755    -1.2187     0.9850 H       
  24 H24            1.1755    -1.6516    -0.7179 H       
@<TRIPOS>BOND
   1    1    2 2
   2    1   10 1
   3    1    5 1
   4    2    3 1
   5    2   13 1
   6    3    4 2
   7    3    7 1
   8    4    5 1
   9    4    6 1
  10    6   14 1
  11    6   15 1
  12    7    8 1
  13    7    9 2
  14    8   16 1
  15   10   11 1
  16   10   17 1
  17   10   18 1
  18   11   12 1
  19   11   19 1
  20   11   20 1
  21   12   13 1
  22   12   21 1
  23   12   22 1
  24   13   23 1
  25   13   24 1

#	End of record

