#	Name: ASD01410181
#	Creating user name:	WinNT
#	Creation time:	15. 06. 2019 19:16

#	Modifying user name:	WinNT
#	Modification time:	15. 06. 2019 19:16

#	Program:	/corina/corina34_cracker 3.40 0067  02.08.2006

@<TRIPOS>MOLECULE
ASD01410181
  45   48    0    0    0
SMALL
NO_CHARGES


@<TRIPOS>ATOM
   1 C1            -0.0170     1.4057     0.0098 C.ar    
   2 C2             0.0021    -0.0041     0.0020 C.ar    
   3 C3            -1.1996    -0.7092     0.0101 C.ar    
   4 C4            -2.3884    -0.0417     0.0254 C.ar    
   5 C5            -2.4219     1.3603     0.0333 C.ar    
   6 C6            -1.2337     2.0857     0.0301 C.ar    
   7 C7             1.3819     1.8345    -0.0013 C.2     
   8 C8             2.1380     0.7093    -0.0145 C.2     
   9 N9             1.3200    -0.3965    -0.0127 N.pl3   
  10 C10            1.2736    -2.5052     1.2253 C.3     
  11 C11            1.7581    -3.9564     1.2125 C.3     
  12 C12            1.2233    -4.6616    -0.0355 C.3     
  13 C13            1.7336    -3.9425    -1.2859 C.3     
  14 C14            1.2491    -2.4913    -1.2730 C.3     
  15 C15            1.7840    -1.7861    -0.0250 C.3     
  16 C16           -3.7169     2.0668     0.0494 C.2     
  17 O17           -3.7462     3.2814     0.0562 O.2     
  18 O18           -4.8671     1.3650     0.0566 O.3     
  19 C19            5.7619     1.1152    -0.5351 C.2     
  20 O20            5.7017     0.1632     0.4085 O.3     
  21 C21            4.4283    -0.1136     0.7245 C.2     
  22 C22            3.6170     0.6760    -0.0296 C.2     
  23 C23            4.5135     1.4878    -0.8622 C.2     
  24 C24            1.8856     3.2548     0.0015 C.3     
  25 H25           -1.1894    -1.7892     0.0038 H       
  26 H26           -3.3139    -0.5984     0.0312 H       
  27 H27           -1.2544     3.1655     0.0362 H       
  28 H28            0.1839    -2.4861     1.2362 H       
  29 H29            1.6547    -2.0028     2.1144 H       
  30 H30            2.8479    -3.9756     1.2016 H       
  31 H31            1.3946    -4.4688     2.1032 H       
  32 H32            1.5684    -5.6955    -0.0447 H       
  33 H33            0.1335    -4.6425    -0.0247 H       
  34 H34            2.8233    -3.9616    -1.2967 H       
  35 H35            1.3525    -4.4449    -2.1750 H       
  36 H36            1.6126    -1.9789    -2.1637 H       
  37 H37            0.1593    -2.4721    -1.2622 H       
  38 H38            2.8737    -1.8052    -0.0358 H       
  39 H39           -5.6905     1.8719     0.0671 H       
  40 H40            6.6685     1.5201    -0.9599 H       
  41 H41            4.1022    -0.8404     1.4537 H       
  42 H42            4.2274     2.2331    -1.5895 H       
  43 H43            2.0173     3.5916     1.0298 H       
  44 H44            2.8407     3.3026    -0.5216 H       
  45 H45            1.1632     3.8975    -0.5016 H       
@<TRIPOS>BOND
   1    1    2 ar
   2    1    7 1
   3    1    6 ar
   4    2    3 ar
   5    2    9 1
   6    3    4 ar
   7    3   25 1
   8    4    5 ar
   9    4   26 1
  10    5    6 ar
  11    5   16 1
  12    6   27 1
  13    7    8 2
  14    7   24 1
  15    8    9 1
  16    8   22 1
  17    9   15 1
  18   10   11 1
  19   10   15 1
  20   10   28 1
  21   10   29 1
  22   11   12 1
  23   11   30 1
  24   11   31 1
  25   12   13 1
  26   12   32 1
  27   12   33 1
  28   13   14 1
  29   13   34 1
  30   13   35 1
  31   14   15 1
  32   14   36 1
  33   14   37 1
  34   15   38 1
  35   16   17 2
  36   16   18 1
  37   18   39 1
  38   19   20 1
  39   19   23 2
  40   19   40 1
  41   20   21 1
  42   21   22 2
  43   21   41 1
  44   22   23 1
  45   23   42 1
  46   24   43 1
  47   24   44 1
  48   24   45 1

#	End of record

