#	Name: ASD01885046
#	Creating user name:	WinNT
#	Creation time:	15. 06. 2019 19:49

#	Modifying user name:	WinNT
#	Modification time:	15. 06. 2019 19:49

#	Program:	/corina/corina34_cracker 3.40 0067  02.08.2006

@<TRIPOS>MOLECULE
ASD01885046
  50   55    0    0    0
SMALL
NO_CHARGES


@<TRIPOS>ATOM
   1 C1             0.0234     1.4430    -0.1876 C.2     
   2 C2             1.1475    -0.6533     0.0641 C.2     
   3 C3             2.3661     0.0503     0.1799 C.2     
   4 C4             2.3827     1.3958     0.1110 C.2     
   5 N5             1.2262     2.0965    -0.0711 N.pl3   
   6 C6             0.9390     3.4257    -0.1777 C.2     
   7 N7            -0.3523     3.5363    -0.3459 N.2     
   8 N8            -0.9032     2.3736    -0.3583 N.2     
   9 C9             1.9296     4.5595    -0.1127 C.3     
  10 N10            1.1318    -2.0431     0.1350 N.pl3   
  11 C11            2.4453     4.8675    -1.5198 C.3     
  12 C12           -0.0181     0.0401    -0.1187 C.2     
  13 C13           -1.3296    -0.6916    -0.2442 C.3     
  14 C14            3.3770     6.0701    -1.6832 C.3     
  15 C15            3.9355     4.6496    -1.7895 C.3     
  16 F16           -1.8395    -0.9568     1.0313 F       
  17 F17           -2.2387     0.0994    -0.9547 F       
  18 F18           -1.1279    -1.8967    -0.9257 F       
  19 C19            0.4867    -2.8934     1.1624 C.3     
  20 C20            1.4896    -4.0422     1.4030 C.3     
  21 C21            2.3268    -4.1177     0.1093 C.3     
  22 C22            1.7509    -3.0079    -0.8033 C.3     
  23 C23            2.9815    -3.7037     1.4287 C.3     
  24 H24            1.1211    -4.9385     1.9021 H       
  25 C25            3.9074    -4.6948     2.0856 C.ar    
  26 H26            2.5819    -5.0701    -0.3555 H       
  27 C27            4.6731    -4.3112     3.1706 C.ar    
  28 C28            5.5225    -5.2203     3.7732 C.ar    
  29 C29            5.6057    -6.5131     3.2909 C.ar    
  30 C30            4.8393    -6.8970     2.2064 C.ar    
  31 C31            3.9867    -5.9891     1.6066 C.ar    
  32 H32            3.2887    -0.4922     0.3247 H       
  33 H33            3.3201     1.9246     0.2008 H       
  34 H34            1.4428     5.4442     0.2976 H       
  35 H35            2.7655     4.2754     0.5266 H       
  36 H36            1.7502     4.6554    -2.3322 H       
  37 H37            3.2952     6.6488    -2.6032 H       
  38 H38            3.6226     6.6418    -0.7882 H       
  39 H39            4.5485     4.2868    -0.9644 H       
  40 H40            4.2211     4.2939    -2.7794 H       
  41 H41            0.3299    -2.3273     2.0805 H       
  42 H42           -0.4596    -3.2865     0.7909 H       
  43 H43            1.0038    -3.4221    -1.4803 H       
  44 H44            2.5502    -2.5264    -1.3668 H       
  45 H45            3.2568    -2.6556     1.5457 H       
  46 H46            4.6081    -3.3011     3.5474 H       
  47 H47            6.1213    -4.9204     4.6205 H       
  48 H48            6.2698    -7.2232     3.7612 H       
  49 H49            4.9046    -7.9069     1.8295 H       
  50 H50            3.3879    -6.2890     0.7593 H       
@<TRIPOS>BOND
   1    1   12 1
   2    1    5 1
   3    1    8 2
   4    2    3 1
   5    2   10 1
   6    2   12 2
   7    3    4 2
   8    3   32 1
   9    4    5 1
  10    4   33 1
  11    5    6 1
  12    6    7 2
  13    6    9 1
  14    7    8 1
  15    9   11 1
  16    9   34 1
  17    9   35 1
  18   10   19 1
  19   10   22 1
  20   11   14 1
  21   11   15 1
  22   11   36 1
  23   12   13 1
  24   13   16 1
  25   13   17 1
  26   13   18 1
  27   14   15 1
  28   14   37 1
  29   14   38 1
  30   15   39 1
  31   15   40 1
  32   19   20 1
  33   19   41 1
  34   19   42 1
  35   20   21 1
  36   20   24 1
  37   20   23 1
  38   21   22 1
  39   21   26 1
  40   21   23 1
  41   22   43 1
  42   22   44 1
  43   23   25 1
  44   23   45 1
  45   25   27 ar
  46   25   31 ar
  47   27   28 ar
  48   27   46 1
  49   28   29 ar
  50   28   47 1
  51   29   30 ar
  52   29   48 1
  53   30   31 ar
  54   30   49 1
  55   31   50 1

#	End of record

