#	Name: ASD02562076
#	Creating user name:	WinNT
#	Creation time:	15. 06. 2019 20:25

#	Modifying user name:	WinNT
#	Modification time:	15. 06. 2019 20:25

#	Program:	/corina/corina34_cracker 3.40 0067  02.08.2006

@<TRIPOS>MOLECULE
ASD02562076
  43   46    0    0    0
SMALL
NO_CHARGES


@<TRIPOS>ATOM
   1 C1             0.7880     1.8530    -2.0914 C.2     
   2 C2             0.8545     0.5024    -2.4758 C.2     
   3 C3             1.7313    -0.3333    -1.8807 C.2     
   4 N4             2.5674     0.1204    -0.8958 N.pl3   
   5 C5             2.5244     1.4375    -0.4991 C.2     
   6 C6             1.6112     2.3194    -1.1151 C.2     
   7 C7             3.5281    -0.4997    -0.1451 C.2     
   8 C8             4.0541     0.4559     0.6981 C.2     
   9 N9             3.4217     1.6192     0.4559 N.2     
  10 N10            3.9033    -1.8417    -0.2183 N.3     
  11 C11            5.1276     0.2402     1.6963 C.ar    
  12 C12            5.1821    -1.9929    -0.9252 C.3     
  13 C13            5.8984    -3.2473    -0.4208 C.3     
  14 C14            7.2304    -3.4048    -1.1570 C.3     
  15 C15            6.9705    -3.5352    -2.6591 C.3     
  16 C16            6.2542    -2.2808    -3.1635 C.3     
  17 C17            4.9223    -2.1233    -2.4273 C.3     
  18 C18            5.0447    -0.8227     2.5948 C.ar    
  19 C19            6.0480    -1.0189     3.5220 C.ar    
  20 C20            7.1347    -0.1639     3.5616 C.ar    
  21 C21            7.2235     0.8929     2.6730 C.ar    
  22 C22            6.2290     1.0968     1.7372 C.ar    
  23 Cl23           6.3418     2.4228     0.6224 Cl      
  24 Br24           1.8053    -2.1469    -2.4112 Br      
  25 H25            0.0879     2.5193    -2.5734 H       
  26 H26            0.2004     0.1316    -3.2511 H       
  27 H27            1.5664     3.3554    -0.8135 H       
  28 H28            3.9471    -2.2555     0.7009 H       
  29 H29            5.8059    -1.1187    -0.7389 H       
  30 H30            6.0836    -3.1544     0.6494 H       
  31 H31            5.2747    -4.1215    -0.6071 H       
  32 H32            7.8541    -2.5306    -0.9707 H       
  33 H33            7.7406    -4.2984    -0.7976 H       
  34 H34            7.9194    -3.6474    -3.1836 H       
  35 H35            6.3467    -4.4094    -2.8454 H       
  36 H36            6.8780    -1.4065    -2.9772 H       
  37 H37            6.0691    -2.3737    -4.2336 H       
  38 H38            4.2985    -2.9975    -2.6136 H       
  39 H39            4.4120    -1.2296    -2.7866 H       
  40 H40            4.1969    -1.4910     2.5655 H       
  41 H41            5.9844    -1.8418     4.2186 H       
  42 H42            7.9168    -0.3218     4.2894 H       
  43 H43            8.0742     1.5573     2.7090 H       
@<TRIPOS>BOND
   1    1    2 1
   2    1    6 2
   3    1   25 1
   4    2    3 2
   5    2   26 1
   6    3    4 1
   7    3   24 1
   8    4    5 1
   9    4    7 1
  10    5    6 1
  11    5    9 2
  12    6   27 1
  13    7    8 2
  14    7   10 1
  15    8    9 1
  16    8   11 1
  17   10   12 1
  18   10   28 1
  19   11   18 ar
  20   11   22 ar
  21   12   13 1
  22   12   17 1
  23   12   29 1
  24   13   14 1
  25   13   30 1
  26   13   31 1
  27   14   15 1
  28   14   32 1
  29   14   33 1
  30   15   16 1
  31   15   34 1
  32   15   35 1
  33   16   17 1
  34   16   36 1
  35   16   37 1
  36   17   38 1
  37   17   39 1
  38   18   19 ar
  39   18   40 1
  40   19   20 ar
  41   19   41 1
  42   20   21 ar
  43   20   42 1
  44   21   22 ar
  45   21   43 1
  46   22   23 1

#	End of record

