#	Name: ASD01910724
#	Creating user name:	WinNT
#	Creation time:	15. 06. 2019 19:56

#	Modifying user name:	WinNT
#	Modification time:	15. 06. 2019 19:56

#	Program:	/corina/corina34_cracker 3.40 0067  02.08.2006

@<TRIPOS>MOLECULE
ASD01910724
  52   55    0    0    0
SMALL
NO_CHARGES


@<TRIPOS>ATOM
   1 C1            12.4805    -1.9064     4.2724 C.ar    
   2 C2            13.1005    -2.0701     3.0410 C.ar    
   3 C3            12.3913    -1.7505     1.8970 C.ar    
   4 C4            11.0885    -1.2786     2.0185 C.ar    
   5 N5            10.5321    -1.1357     3.2117 N.ar    
   6 C6            11.1844    -1.4330     4.3194 C.ar    
   7 N7            10.3644    -0.9536     0.8774 N.3     
   8 C8             9.0189    -0.4777     1.2255 C.3     
   9 C9             8.3208     0.0387    -0.0372 C.3     
  10 N10            8.3616    -1.0184    -1.0590 N.am    
  11 C11            9.6584    -1.6414    -1.3644 C.3     
  12 C12           10.3038    -2.0916    -0.0495 C.3     
  13 C13            7.2404    -1.4055    -1.6989 C.2     
  14 C14            7.3210    -2.3785    -2.8064 C.ar    
  15 O15            6.1625    -0.9535    -1.3642 O.2     
  16 C16            6.3462    -3.3727    -2.9362 C.ar    
  17 C17            6.4166    -4.2836    -3.9680 C.ar    
  18 C18            7.4552    -4.2216    -4.8857 C.ar    
  19 C19            8.4405    -3.2277    -4.7653 C.ar    
  20 C20            8.3660    -2.3027    -3.7263 C.ar    
  21 C21            9.5142    -3.1619    -5.7106 C.1     
  22 C22           10.3945    -3.1080    -6.4855 C.1     
  23 C23           11.4682    -3.0422    -7.4307 C.ar    
  24 O24            7.5195    -5.1209    -5.8987 O.3     
  25 C25           12.4607    -2.0575    -7.3269 C.ar    
  26 C26           13.4761    -2.0321    -8.2589 C.ar    
  27 N27           13.5210    -2.9168    -9.2372 N.ar    
  28 C28           12.6079    -3.8602    -9.3723 C.ar    
  29 C29           11.5600    -3.9643    -8.4828 C.ar    
  30 C30            6.4844    -6.1043    -5.9599 C.3     
  31 H31           13.0053    -2.1510     5.1841 H       
  32 H32           14.1138    -2.4385     2.9776 H       
  33 H33           12.8431    -1.8655     0.9229 H       
  34 H34           10.6985    -1.3037     5.2752 H       
  35 H35            8.4413    -1.2986     1.6505 H       
  36 H36            9.0957     0.3291     1.9544 H       
  37 H37            7.2844     0.2861     0.1926 H       
  38 H38            8.8385     0.9243    -0.4056 H       
  39 H39            9.5064    -2.5047    -2.0122 H       
  40 H40           10.3048    -0.9172    -1.8605 H       
  41 H41           11.3126    -2.4553    -0.2453 H       
  42 H42            9.7084    -2.8901     0.3932 H       
  43 H43            5.5354    -3.4272    -2.2249 H       
  44 H44            5.6604    -5.0489    -4.0623 H       
  45 H45            9.1202    -1.5360    -3.6280 H       
  46 H46           12.4300    -1.3299    -6.5294 H       
  47 H47           14.2454    -1.2775    -8.1876 H       
  48 H48           12.6851    -4.5629   -10.1888 H       
  49 H49           10.8166    -4.7391    -8.5993 H       
  50 H50            5.5192    -5.6095    -6.0682 H       
  51 H51            6.6551    -6.7588    -6.8146 H       
  52 H52            6.4893    -6.6945    -5.0435 H       
@<TRIPOS>BOND
   1    1    2 ar
   2    1    6 ar
   3    1   31 1
   4    2    3 ar
   5    2   32 1
   6    3    4 ar
   7    3   33 1
   8    4    5 ar
   9    4    7 1
  10    5    6 ar
  11    6   34 1
  12    7    8 1
  13    7   12 1
  14    8    9 1
  15    8   35 1
  16    8   36 1
  17    9   10 1
  18    9   37 1
  19    9   38 1
  20   10   11 1
  21   10   13 am
  22   11   12 1
  23   11   39 1
  24   11   40 1
  25   12   41 1
  26   12   42 1
  27   13   14 1
  28   13   15 2
  29   14   16 ar
  30   14   20 ar
  31   16   17 ar
  32   16   43 1
  33   17   18 ar
  34   17   44 1
  35   18   19 ar
  36   18   24 1
  37   19   20 ar
  38   19   21 1
  39   20   45 1
  40   21   22 3
  41   22   23 1
  42   23   25 ar
  43   23   29 ar
  44   24   30 1
  45   25   26 ar
  46   25   46 1
  47   26   27 ar
  48   26   47 1
  49   27   28 ar
  50   28   29 ar
  51   28   48 1
  52   29   49 1
  53   30   50 1
  54   30   51 1
  55   30   52 1

#	End of record

