#	Name: ASD01912469
#	Creating user name:	WinNT
#	Creation time:	15. 06. 2019 19:59

#	Modifying user name:	WinNT
#	Modification time:	15. 06. 2019 19:59

#	Program:	/corina/corina34_cracker 3.40 0067  02.08.2006

@<TRIPOS>MOLECULE
ASD01912469
  52   55    0    0    0
SMALL
NO_CHARGES


@<TRIPOS>ATOM
   1 C1            -0.0166     1.3758     0.0096 C.ar    
   2 C2             0.0021    -0.0041     0.0020 C.ar    
   3 C3            -1.1960    -0.7150     0.0101 C.ar    
   4 C4            -2.4087    -0.0287     0.0258 C.ar    
   5 C5            -2.4183     1.3508     0.0333 C.ar    
   6 C6            -1.2243     2.0540     0.0306 C.ar    
   7 C7            -1.1807    -2.1991     0.0015 C.2     
   8 N8            -0.1086    -2.9624    -0.0133 N.2     
   9 C9            -2.3110    -3.0394     0.0138 C.2     
  10 C10           -1.8762    -4.3183     0.0000 C.2     
  11 N11           -0.5261    -4.2994    -0.0168 N.pl3   
  12 C12           -2.7450    -5.5496     0.0066 C.3     
  13 C13            0.3500    -5.4735    -0.0352 C.3     
  14 C14            0.6325    -5.8672    -1.4621 C.2     
  15 N15            1.4217    -6.9276    -1.7250 N.am    
  16 O16            0.1496    -5.2298    -2.3740 O.2     
  17 C17            1.7103    -7.3290    -3.1102 C.3     
  18 C18            2.0223    -7.7104    -0.6342 C.3     
  19 C19            3.5268    -7.8361    -0.8964 C.3     
  20 N20            3.7420    -8.3810    -2.2435 N.3     
  21 C21            3.2278    -7.4705    -3.2699 C.3     
  22 C22            5.0805    -8.6609    -2.4574 C.ar    
  23 N23            5.4581    -9.1614    -3.6246 N.ar    
  24 N24            5.9545    -8.4169    -1.4920 N.ar    
  25 C25            7.2409    -8.6725    -1.6641 C.ar    
  26 C26            7.6696    -9.2014    -2.8714 C.ar    
  27 C27            6.7294    -9.4396    -3.8615 C.ar    
  28 F28           -1.2382     3.4049     0.0384 F       
  29 C29            1.2787     2.1460     0.0014 C.3     
  30 H30            0.9441    -0.5321    -0.0105 H       
  31 H31           -3.3397    -0.5760     0.0318 H       
  32 H32           -3.3577     1.8835     0.0452 H       
  33 H33           -3.3420    -2.7184     0.0317 H       
  34 H34           -2.9700    -5.8411    -1.0193 H       
  35 H35           -2.2197    -6.3623     0.5083 H       
  36 H36           -3.6738    -5.3361     0.5356 H       
  37 H37            1.2869    -5.2356     0.4684 H       
  38 H38           -0.1396    -6.3002     0.4797 H       
  39 H39            1.2292    -8.2837    -3.3226 H       
  40 H40            1.3392    -6.5680    -3.7967 H       
  41 H41            1.8574    -7.2016     0.3155 H       
  42 H42            1.5717    -8.7025    -0.6044 H       
  43 H43            3.9922    -6.8532    -0.8230 H       
  44 H44            3.9700    -8.5048    -0.1585 H       
  45 H45            3.4493    -7.8738    -4.2580 H       
  46 H46            3.7010    -6.4946    -3.1606 H       
  47 H47            7.9487    -8.4712    -0.8735 H       
  48 H48            8.7141    -9.4191    -3.0385 H       
  49 H49            7.0306    -9.8511    -4.8136 H       
  50 H50            1.5812     2.3372    -1.0282 H       
  51 H51            1.1412     3.0939     0.5216 H       
  52 H52            2.0507     1.5639     0.5047 H       
@<TRIPOS>BOND
   1    1    2 ar
   2    1   29 1
   3    1    6 ar
   4    2    3 ar
   5    2   30 1
   6    3    4 ar
   7    3    7 1
   8    4    5 ar
   9    4   31 1
  10    5    6 ar
  11    5   32 1
  12    6   28 1
  13    7    8 2
  14    7    9 1
  15    8   11 1
  16    9   10 2
  17    9   33 1
  18   10   11 1
  19   10   12 1
  20   11   13 1
  21   12   34 1
  22   12   35 1
  23   12   36 1
  24   13   14 1
  25   13   37 1
  26   13   38 1
  27   14   15 am
  28   14   16 2
  29   15   17 1
  30   15   18 1
  31   17   21 1
  32   17   39 1
  33   17   40 1
  34   18   19 1
  35   18   41 1
  36   18   42 1
  37   19   20 1
  38   19   43 1
  39   19   44 1
  40   20   21 1
  41   20   22 1
  42   21   45 1
  43   21   46 1
  44   22   23 ar
  45   22   24 ar
  46   23   27 ar
  47   24   25 ar
  48   25   26 ar
  49   25   47 1
  50   26   27 ar
  51   26   48 1
  52   27   49 1
  53   29   50 1
  54   29   51 1
  55   29   52 1

#	End of record

