#	Name: ASD02500014
#	Creating user name:	WinNT
#	Creation time:	15. 06. 2019 20:22

#	Modifying user name:	WinNT
#	Modification time:	15. 06. 2019 20:22

#	Program:	/corina/corina34_cracker 3.40 0067  02.08.2006

@<TRIPOS>MOLECULE
ASD02500014
  23   23    0    0    0
SMALL
NO_CHARGES


@<TRIPOS>ATOM
   1 C1            -0.0167     1.3781     0.0096 C.ar    
   2 C2             0.0021    -0.0041     0.0020 C.ar    
   3 C3             1.2084    -0.6789    -0.0132 C.ar    
   4 C4             2.3961     0.0285    -0.0212 C.ar    
   5 C5             2.3773     1.4107    -0.0145 C.ar    
   6 C6             1.1709     2.0855     0.0021 C.ar    
   7 C7             1.2289    -2.1857    -0.0205 C.3     
   8 C8             1.2214    -2.6889    -1.4653 C.3     
   9 N9             2.4647    -2.2801    -2.1326 N.3     
  10 H10            0.3685    -2.2632    -1.9939 H       
  11 C11            1.1180    -4.1923    -1.4732 C.2     
  12 O12            2.1078    -4.8651    -1.6386 O.2     
  13 O13           -0.0738    -4.7840    -1.2964 O.3     
  14 H14           -0.9592     1.9054     0.0170 H       
  15 H15           -0.9258    -0.5567     0.0083 H       
  16 H16            3.3386    -0.4987    -0.0324 H       
  17 H17            3.3052     1.9634    -0.0205 H       
  18 H18            1.1563     3.1654     0.0069 H       
  19 H19            2.1288    -2.5393     0.4828 H       
  20 H20            0.3491    -2.5635     0.5004 H       
  21 H21            2.5266    -1.2751    -2.1976 H       
  22 H22            3.2707    -2.6623    -1.6611 H       
  23 H23           -0.0902    -5.7507    -1.3092 H       
@<TRIPOS>BOND
   1    1    2 ar
   2    1    6 ar
   3    1   14 1
   4    2    3 ar
   5    2   15 1
   6    3    4 ar
   7    3    7 1
   8    4    5 ar
   9    4   16 1
  10    5    6 ar
  11    5   17 1
  12    6   18 1
  13    7    8 1
  14    7   19 1
  15    7   20 1
  16    8    9 1
  17    8   10 1
  18    8   11 1
  19    9   21 1
  20    9   22 1
  21   11   12 2
  22   11   13 1
  23   13   23 1

#	End of record

