#	Name: ASD09080092
#	Creating user name:	WinNT
#	Creation time:	15. 06. 2019 21:20

#	Modifying user name:	WinNT
#	Modification time:	15. 06. 2019 21:20

#	Program:	/corina/corina34_cracker 3.40 0067  02.08.2006

@<TRIPOS>MOLECULE
ASD09080092
  58   59    0    0    0
SMALL
NO_CHARGES


@<TRIPOS>ATOM
   1 C1            -0.0167     1.3799     0.0096 C.ar    
   2 C2             0.0021    -0.0041     0.0020 C.ar    
   3 C3             1.2064    -0.6807    -0.0127 C.ar    
   4 C4             2.4033     0.0323    -0.0204 C.ar    
   5 C5             2.3792     1.4253    -0.0131 C.ar    
   6 C6             1.1698     2.0928     0.0021 C.ar    
   7 C7             3.6997    -0.6897    -0.0357 C.ar    
   8 C8             4.8969     0.0231    -0.0433 C.ar    
   9 C9             3.7243    -2.0828    -0.0367 C.ar    
  10 C10            4.9328    -2.7491    -0.0510 C.ar    
  11 C11            6.1183    -2.0365    -0.0639 C.ar    
  12 C12            6.0998    -0.6534    -0.0576 C.ar    
  13 Cl13           1.1380     3.8285     0.0112 Cl      
  14 Cl14          -1.4902    -0.8910     0.0116 Cl      
  15 C15            7.4348    -2.7697    -0.0790 C.3     
  16 C16            7.8643    -3.0170    -1.5265 C.3     
  17 C17            9.1161    -3.8559    -1.5428 C.2     
  18 C18            9.1459    -4.9935    -2.2328 C.2     
  19 N19            8.1273    -1.7344    -2.1838 N.am    
  20 O20            9.3192     0.2678    -2.3025 O.3     
  21 C21           10.3566     1.1038    -1.7253 C.3     
  22 C22           11.6883     0.3509    -1.7452 C.3     
  23 C23           10.4866     2.3917    -2.5410 C.3     
  24 C24            9.9880     1.4499    -0.2812 C.3     
  25 C25            9.0775    -0.9109    -1.6985 C.2     
  26 O26            9.7159    -1.2322    -0.7158 O.2     
  27 C27           10.3665    -5.8115    -2.2486 C.2     
  28 O28           11.3489    -5.4491    -1.6316 O.2     
  29 O29           10.3967    -6.9637    -2.9475 O.3     
  30 C30           11.4799    -8.9869    -3.7621 C.3     
  31 C31           11.6357    -7.7203    -2.9181 C.3     
  32 H32           -0.9602     1.9054     0.0170 H       
  33 H33            1.2200    -1.7606    -0.0179 H       
  34 H34            3.3044     1.9823    -0.0186 H       
  35 H35            4.8836     1.1031    -0.0384 H       
  36 H36            2.7993    -2.6402    -0.0260 H       
  37 H37            4.9530    -3.8290    -0.0518 H       
  38 H38            7.0284    -0.1019    -0.0677 H       
  39 H39            8.1909    -2.1692     0.4267 H       
  40 H40            7.3250    -3.7243     0.4356 H       
  41 H41            7.0690    -3.5407    -2.0570 H       
  42 H42            9.9891    -3.5339    -0.9945 H       
  43 H43            8.2729    -5.3155    -2.7811 H       
  44 H44            7.6177    -1.4779    -2.9683 H       
  45 H45           11.9510     0.1044    -2.7740 H       
  46 H46           12.4671     0.9785    -1.3119 H       
  47 H47           11.5958    -0.5666    -1.1640 H       
  48 H48            9.5378     2.9281    -2.5268 H       
  49 H49           11.2653     3.0192    -2.1077 H       
  50 H50           10.7492     2.1451    -3.5698 H       
  51 H51            9.8954     0.5324     0.3000 H       
  52 H52           10.7667     2.0775     0.1521 H       
  53 H53            9.0392     1.9863    -0.2670 H       
  54 H54           10.6723    -9.5965    -3.3568 H       
  55 H55           11.2465    -8.7118    -4.7906 H       
  56 H56           12.4100    -9.5549    -3.7400 H       
  57 H57           12.4433    -7.1107    -3.3234 H       
  58 H58           11.8691    -7.9954    -1.8896 H       
@<TRIPOS>BOND
   1    1    2 ar
   2    1    6 ar
   3    1   32 1
   4    2    3 ar
   5    2   14 1
   6    3    4 ar
   7    3   33 1
   8    4    5 ar
   9    4    7 1
  10    5    6 ar
  11    5   34 1
  12    6   13 1
  13    7    8 ar
  14    7    9 ar
  15    8   12 ar
  16    8   35 1
  17    9   10 ar
  18    9   36 1
  19   10   11 ar
  20   10   37 1
  21   11   12 ar
  22   11   15 1
  23   12   38 1
  24   15   16 1
  25   15   39 1
  26   15   40 1
  27   16   17 1
  28   16   19 1
  29   16   41 1
  30   17   18 2
  31   17   42 1
  32   18   27 1
  33   18   43 1
  34   19   25 am
  35   19   44 1
  36   20   21 1
  37   20   25 1
  38   21   22 1
  39   21   23 1
  40   21   24 1
  41   22   45 1
  42   22   46 1
  43   22   47 1
  44   23   48 1
  45   23   49 1
  46   23   50 1
  47   24   51 1
  48   24   52 1
  49   24   53 1
  50   25   26 2
  51   27   28 2
  52   27   29 1
  53   29   31 1
  54   30   31 1
  55   30   54 1
  56   30   55 1
  57   30   56 1
  58   31   57 1
  59   31   58 1

#	End of record

