#	Name: ASD01883085
#	Creating user name:	WinNT
#	Creation time:	15. 06. 2019 19:45

#	Modifying user name:	WinNT
#	Modification time:	15. 06. 2019 19:45

#	Program:	/corina/corina34_cracker 3.40 0067  02.08.2006

@<TRIPOS>MOLECULE
ASD01883085
  44   46    0    0    0
SMALL
NO_CHARGES


@<TRIPOS>ATOM
   1 O1            -0.0173     1.4248     0.0099 O.3     
   2 N2             5.4106     4.2700     1.3562 N.am    
   3 C3             6.1575     3.3309     1.9657 C.2     
   4 C4             6.5949     3.5308     3.2983 C.2     
   5 C5             6.2325     4.7195     3.9563 C.2     
   6 C6             5.4491     5.6639     3.2641 C.2     
   7 C7             5.0654     5.4199     1.9906 C.2     
   8 O8             6.4571     2.3090     1.3718 O.2     
   9 C9             7.3899     2.5419     3.9621 C.1     
  10 N10            8.0205     1.7573     4.4887 N.1     
  11 C11            4.9659     4.0499    -0.0222 C.3     
  12 C12            3.6326     3.3475    -0.0137 C.ar    
  13 C13            2.4636     4.0858     0.0010 C.ar    
  14 C14            1.2402     3.4444     0.0087 C.ar    
  15 C15            1.1850     2.0582     0.0018 C.ar    
  16 C16            2.3594     1.3196    -0.0129 C.ar    
  17 C17            3.5802     1.9659    -0.0264 C.ar    
  18 C18            6.6644     4.9729     5.3465 C.ar    
  19 C19            7.5383     6.0261     5.6274 C.ar    
  20 C20            7.9386     6.2590     6.9246 C.ar    
  21 C21            7.4748     5.4477     7.9532 C.ar    
  22 C22            6.6058     4.3987     7.6778 C.ar    
  23 C23            6.1956     4.1634     6.3841 C.ar    
  24 O24            7.8721     5.6801     9.2304 O.3     
  25 C25            7.3573     4.8082    10.2388 C.3     
  26 C26            0.0021    -0.0041     0.0020 C.3     
  27 F27            0.6787    -0.4675     1.1354 F       
  28 F28           -1.3104    -0.4883     0.0119 F       
  29 F29            0.6569    -0.4552    -1.1490 F       
  30 H30            5.1585     6.5842     3.7489 H       
  31 H31            4.4650     6.1512     1.4700 H       
  32 H32            4.8679     5.0094    -0.5300 H       
  33 H33            5.6973     3.4346    -0.5461 H       
  34 H34            2.5071     5.1650     0.0067 H       
  35 H35            0.3274     4.0215     0.0206 H       
  36 H36            2.3190     0.2404    -0.0180 H       
  37 H37            4.4947     1.3914    -0.0382 H       
  38 H38            7.8997     6.6566     4.8285 H       
  39 H39            8.6141     7.0729     7.1427 H       
  40 H40            6.2479     3.7702     8.4798 H       
  41 H41            5.5200     3.3483     6.1708 H       
  42 H42            7.6575     3.7833    10.0207 H       
  43 H43            7.7525     5.1036    11.2108 H       
  44 H44            6.2694     4.8728    10.2541 H       
@<TRIPOS>BOND
   1    1   26 1
   2    1   15 1
   3    2    3 am
   4    2   11 1
   5    2    7 1
   6    3    4 1
   7    3    8 2
   8    4    5 2
   9    4    9 1
  10    5    6 1
  11    5   18 1
  12    6    7 2
  13    6   30 1
  14    7   31 1
  15    9   10 3
  16   11   12 1
  17   11   32 1
  18   11   33 1
  19   12   13 ar
  20   12   17 ar
  21   13   14 ar
  22   13   34 1
  23   14   15 ar
  24   14   35 1
  25   15   16 ar
  26   16   17 ar
  27   16   36 1
  28   17   37 1
  29   18   19 ar
  30   18   23 ar
  31   19   20 ar
  32   19   38 1
  33   20   21 ar
  34   20   39 1
  35   21   22 ar
  36   21   24 1
  37   22   23 ar
  38   22   40 1
  39   23   41 1
  40   24   25 1
  41   25   42 1
  42   25   43 1
  43   25   44 1
  44   26   27 1
  45   26   28 1
  46   26   29 1

#	End of record

