#	Name: ASD01911966
#	Creating user name:	WinNT
#	Creation time:	15. 06. 2019 19:58

#	Modifying user name:	WinNT
#	Modification time:	15. 06. 2019 19:58

#	Program:	/corina/corina34_cracker 3.40 0067  02.08.2006

@<TRIPOS>MOLECULE
ASD01911966
  49   51    0    0    0
SMALL
NO_CHARGES


@<TRIPOS>ATOM
   1 C1            -0.1890     1.9666     0.2447 C.ar    
   2 C2             0.0576     0.6006     0.1285 C.ar    
   3 C3             1.3816     0.1680     0.1222 C.ar    
   4 N4             2.3495     1.0635     0.2260 N.ar    
   5 C5             2.0744     2.3479     0.3343 C.ar    
   6 N6             0.8354     2.7972     0.3441 N.ar    
   7 N7            -0.9956    -0.3119     0.0215 N.pl3   
   8 C8            -2.3174     0.1424     0.0302 C.ar    
   9 C9            -4.3121     0.7097     1.2421 C.ar    
  10 C10           -4.9398     1.0412     0.0563 C.ar    
  11 C11           -4.2601     0.9198    -1.1490 C.ar    
  12 C12           -2.9473     0.4696    -1.1619 C.ar    
  13 N13           -4.8967     1.2558    -2.3486 N.am    
  14 C14           -4.6391     0.5515    -3.4684 C.2     
  15 C15           -5.3872     0.8387    -4.7107 C.ar    
  16 O16           -3.7915    -0.3199    -3.4569 O.2     
  17 C17           -6.3613     1.8396    -4.7256 C.ar    
  18 C18           -3.0048     0.2615     1.2335 C.ar    
  19 Cl19          -2.2204    -0.1538     2.7254 Cl      
  20 C20           -0.7141    -1.7444    -0.0999 C.3     
  21 C21           -7.0608     2.1096    -5.8852 C.ar    
  22 C22           -6.8032     1.3935    -7.0370 C.ar    
  23 C23           -5.8316     0.3890    -7.0362 C.ar    
  24 C24           -5.1180     0.1153    -5.8709 C.ar    
  25 C25           -5.5657    -0.3533    -8.2316 C.1     
  26 C26           -0.6508    -2.3716     1.2942 C.3     
  27 C27           -0.4812    -3.8867     1.1647 C.3     
  28 C28            0.5376    -1.7892     2.0620 C.3     
  29 N29           -5.3548    -0.9421    -9.1799 N.1     
  30 H30           -1.2016     2.3422     0.2490 H       
  31 H31            1.6144    -0.8829     0.0342 H       
  32 H32            2.8882     3.0529     0.4177 H       
  33 H33           -4.8429     0.8050     2.1778 H       
  34 H34           -5.9616     1.3908     0.0663 H       
  35 H35           -2.4171     0.3745    -2.0980 H       
  36 H36           -5.5235     1.9956    -2.3743 H       
  37 H37           -6.5681     2.4034    -3.8280 H       
  38 H38           -1.5051    -2.2225    -0.6777 H       
  39 H39            0.2412    -1.8855    -0.6055 H       
  40 H40           -7.8132     2.8844    -5.8910 H       
  41 H41           -7.3539     1.6098    -7.9405 H       
  42 H42           -4.3658    -0.6596    -5.8648 H       
  43 H43           -1.5731    -2.1540     1.8328 H       
  44 H44            0.4411    -4.1043     0.6261 H       
  45 H45           -0.4361    -4.3335     2.1579 H       
  46 H46           -1.3279    -4.3016     0.6177 H       
  47 H47            0.5827    -2.2360     3.0552 H       
  48 H48            1.4600    -2.0069     1.5234 H       
  49 H49            0.4168    -0.7099     2.1543 H       
@<TRIPOS>BOND
   1    1    2 ar
   2    1    6 ar
   3    1   30 1
   4    2    3 ar
   5    2    7 1
   6    3    4 ar
   7    3   31 1
   8    4    5 ar
   9    5    6 ar
  10    5   32 1
  11    7    8 1
  12    7   20 1
  13    8   18 ar
  14    8   12 ar
  15    9   10 ar
  16    9   18 ar
  17    9   33 1
  18   10   11 ar
  19   10   34 1
  20   11   12 ar
  21   11   13 1
  22   12   35 1
  23   13   14 am
  24   13   36 1
  25   14   15 1
  26   14   16 2
  27   15   17 ar
  28   15   24 ar
  29   17   21 ar
  30   17   37 1
  31   18   19 1
  32   20   26 1
  33   20   38 1
  34   20   39 1
  35   21   22 ar
  36   21   40 1
  37   22   23 ar
  38   22   41 1
  39   23   24 ar
  40   23   25 1
  41   24   42 1
  42   25   29 3
  43   26   27 1
  44   26   28 1
  45   26   43 1
  46   27   44 1
  47   27   45 1
  48   27   46 1
  49   28   47 1
  50   28   48 1
  51   28   49 1

#	End of record

