#	Name: ASD01120300
#	Creating user name:	WinNT
#	Creation time:	15. 06. 2019 18:59

#	Modifying user name:	WinNT
#	Modification time:	15. 06. 2019 18:59

#	Program:	/corina/corina34_cracker 3.40 0067  02.08.2006

@<TRIPOS>MOLECULE
ASD01120300
  41   43    0    0    0
SMALL
NO_CHARGES


@<TRIPOS>ATOM
   1 C1             0.0718     0.6713     2.1762 C.3     
   2 O2            -0.0062    -0.1914     1.0397 O.3     
   3 C3            -1.2081    -0.7793     0.7916 C.ar    
   4 C4            -2.2861    -0.5297     1.6247 C.ar    
   5 C5            -3.5079    -1.1257     1.3739 C.ar    
   6 C6            -3.6570    -1.9759     0.2863 C.ar    
   7 C7            -2.5779    -2.2281    -0.5510 C.ar    
   8 C8            -1.3556    -1.6269    -0.3026 C.ar    
   9 O9            -0.2977    -1.8720    -1.1212 O.3     
  10 C10           -0.5186    -2.7602    -2.2186 C.3     
  11 N11           -4.8942    -2.5787     0.0340 N.pl3   
  12 C12           -6.0667    -1.8383     0.1547 C.ar    
  13 C13           -6.0092    -0.4733     0.3702 C.ar    
  14 C14           -7.1755     0.2674     0.4909 C.ar    
  15 C15           -8.4088    -0.3401     0.3988 C.ar    
  16 C16           -8.4975    -1.7122     0.1819 C.ar    
  17 C17           -7.3196    -2.4730     0.0525 C.ar    
  18 C18           -7.7123    -3.8138    -0.1572 C.2     
  19 C19           -9.0725    -3.8533    -0.1534 C.2     
  20 N20           -9.5606    -2.5744     0.0490 N.pl3   
  21 C21           -9.8899    -5.0572    -0.3386 C.2     
  22 O22           -9.3542    -6.1347    -0.5139 O.2     
  23 O23          -11.2356    -4.9690    -0.3146 O.3     
  24 N24           -9.6422     0.4680     0.5314 N.pl3   
  25 O25           -9.5660     1.6687     0.7217 O.2     
  26 O26          -10.7330    -0.0677     0.4503 O.2     
  27 H27            1.0818     1.0728     2.2590 H       
  28 H28           -0.6367     1.4913     2.0592 H       
  29 H29           -0.1702     0.1079     3.0773 H       
  30 H30           -2.1719     0.1310     2.4713 H       
  31 H31           -4.3472    -0.9301     2.0248 H       
  32 H32           -2.6931    -2.8893    -1.3971 H       
  33 H33            0.4034    -2.8685    -2.7897 H       
  34 H34           -0.8284    -3.7346    -1.8407 H       
  35 H35           -1.2994    -2.3552    -2.8623 H       
  36 H36           -4.9348    -3.5126    -0.2250 H       
  37 H37           -5.0506     0.0185     0.4452 H       
  38 H38           -7.1164     1.3325     0.6593 H       
  39 H39           -7.0513    -4.6566    -0.2958 H       
  40 H40          -10.4976    -2.3277     0.0942 H       
  41 H41          -11.7316    -5.7893    -0.4413 H       
@<TRIPOS>BOND
   1    1    2 1
   2    1   27 1
   3    1   28 1
   4    1   29 1
   5    2    3 1
   6    3    4 ar
   7    3    8 ar
   8    4    5 ar
   9    4   30 1
  10    5    6 ar
  11    5   31 1
  12    6    7 ar
  13    6   11 1
  14    7    8 ar
  15    7   32 1
  16    8    9 1
  17    9   10 1
  18   10   33 1
  19   10   34 1
  20   10   35 1
  21   11   12 1
  22   11   36 1
  23   12   13 ar
  24   12   17 ar
  25   13   14 ar
  26   13   37 1
  27   14   15 ar
  28   14   38 1
  29   15   16 ar
  30   15   24 1
  31   16   17 ar
  32   16   20 1
  33   17   18 1
  34   18   19 2
  35   18   39 1
  36   19   20 1
  37   19   21 1
  38   20   40 1
  39   21   22 2
  40   21   23 1
  41   23   41 1
  42   24   25 2
  43   24   26 2

#	End of record

