#	Name: ASD03331368
#	Creating user name:	WinNT
#	Creation time:	15. 06. 2019 20:39

#	Modifying user name:	WinNT
#	Modification time:	15. 06. 2019 20:39

#	Program:	/corina/corina34_cracker 3.40 0067  02.08.2006

@<TRIPOS>MOLECULE
ASD03331368
  61   63    0    0    0
SMALL
NO_CHARGES


@<TRIPOS>ATOM
   1 C1            -0.7099     1.7129     0.5867 C.2     
   2 C2            -0.4391     0.4130     0.3069 C.2     
   3 C3             0.9574    -0.1517     0.2084 C.3     
   4 C4             1.9284     1.0344     0.1019 C.3     
   5 C5             1.5561     2.0769     1.1605 C.3     
   6 N6             0.2660     2.6958     0.8221 N.3     
   7 N7            -2.6542     0.6962     0.3266 N.2     
   8 N8            -1.6227    -0.2368     0.1427 N.am    
   9 C9            -2.1125     1.8657     0.5980 C.2     
  10 C10           -1.7771    -1.5441    -0.1460 C.2     
  11 O11           -0.8015    -2.2553    -0.2833 O.2     
  12 N12           -3.0136    -2.0627    -0.2824 N.am    
  13 C13           -0.1655     3.6244     1.8753 C.3     
  14 C14           -4.5070    -3.6937    -1.2816 C.2     
  15 C15           -3.1814    -3.4838    -0.5962 C.3     
  16 C16           -3.1412    -4.2999     0.6973 C.3     
  17 C17           -4.2128    -3.7837     1.6596 C.3     
  18 O18           -5.3451    -2.8173    -1.2625 O.2     
  19 C19           -3.4077    -5.7727     0.3796 C.3     
  20 C20           -1.7627    -4.1596     1.3462 C.3     
  21 N21           -4.7612    -4.8555    -1.9159 N.am    
  22 C22           -6.0749    -5.0872    -2.5215 C.3     
  23 C23           -6.0995    -6.4719    -3.1719 C.3     
  24 O24           -5.9663    -7.4747    -2.1626 O.3     
  25 C25           -2.8486     3.1259     0.8608 C.ar    
  26 C26           -2.5515     4.2766     0.1285 C.ar    
  27 C27           -3.2412     5.4482     0.3774 C.ar    
  28 C28           -4.2239     5.4820     1.3498 C.ar    
  29 C29           -4.5230     4.3432     2.0796 C.ar    
  30 C30           -3.8433     3.1644     1.8356 C.ar    
  31 F31           -5.4842     4.3833     3.0281 F       
  32 F32           -1.5914     4.2452    -0.8215 F       
  33 H33            1.1839    -0.7367     1.0998 H       
  34 H34            1.0411    -0.7796    -0.6786 H       
  35 H35            2.9477     0.6883     0.2730 H       
  36 H36            1.8538     1.4792    -0.8905 H       
  37 H37            1.4808     1.5930     2.1343 H       
  38 H38            2.3277     2.8458     1.1985 H       
  39 H39           -3.7924    -1.4949    -0.1728 H       
  40 H40           -0.4792     3.0585     2.7525 H       
  41 H41            0.6629     4.2803     2.1432 H       
  42 H42           -1.0004     4.2236     1.5118 H       
  43 H43           -2.3762    -3.8079    -1.2555 H       
  44 H44           -5.1949    -3.8838     1.1972 H       
  45 H45           -4.1842    -4.3652     2.5811 H       
  46 H46           -4.0230    -2.7345     1.8859 H       
  47 H47           -2.6233    -6.1507    -0.2761 H       
  48 H48           -3.4162    -6.3483     1.3052 H       
  49 H49           -4.3735    -5.8683    -0.1166 H       
  50 H50           -1.5729    -3.1103     1.5725 H       
  51 H51           -1.7341    -4.7410     2.2677 H       
  52 H52           -0.9993    -4.5273     0.6607 H       
  53 H53           -4.0743    -5.5381    -1.9714 H       
  54 H54           -6.8445    -5.0337    -1.7515 H       
  55 H55           -6.2651    -4.3267    -3.2788 H       
  56 H56           -7.0441    -6.6093    -3.6982 H       
  57 H57           -5.2741    -6.5560    -3.8788 H       
  58 H58           -5.9739    -8.3795    -2.5037 H       
  59 H59           -3.0120     6.3392    -0.1883 H       
  60 H60           -4.7601     6.3997     1.5412 H       
  61 H61           -4.0803     2.2759     2.4020 H       
@<TRIPOS>BOND
   1    1    2 2
   2    1    6 1
   3    1    9 1
   4    2    3 1
   5    2    8 1
   6    3    4 1
   7    3   33 1
   8    3   34 1
   9    4    5 1
  10    4   35 1
  11    4   36 1
  12    5    6 1
  13    5   37 1
  14    5   38 1
  15    6   13 1
  16    7    8 1
  17    7    9 2
  18    8   10 am
  19    9   25 1
  20   10   11 2
  21   10   12 am
  22   12   15 1
  23   12   39 1
  24   13   40 1
  25   13   41 1
  26   13   42 1
  27   14   18 2
  28   14   21 am
  29   14   15 1
  30   15   16 1
  31   15   43 1
  32   16   17 1
  33   16   19 1
  34   16   20 1
  35   17   44 1
  36   17   45 1
  37   17   46 1
  38   19   47 1
  39   19   48 1
  40   19   49 1
  41   20   50 1
  42   20   51 1
  43   20   52 1
  44   21   22 1
  45   21   53 1
  46   22   23 1
  47   22   54 1
  48   22   55 1
  49   23   24 1
  50   23   56 1
  51   23   57 1
  52   24   58 1
  53   25   26 ar
  54   25   30 ar
  55   26   27 ar
  56   26   32 1
  57   27   28 ar
  58   27   59 1
  59   28   29 ar
  60   28   60 1
  61   29   30 ar
  62   29   31 1
  63   30   61 1

#	End of record

