#	Name: ASD03430471
#	Creating user name:	WinNT
#	Creation time:	15. 06. 2019 20:41

#	Modifying user name:	WinNT
#	Modification time:	15. 06. 2019 20:41

#	Program:	/corina/corina34_cracker 3.40 0067  02.08.2006

@<TRIPOS>MOLECULE
ASD03430471
  57   61    0    0    0
SMALL
NO_CHARGES


@<TRIPOS>ATOM
   1 N1            -0.1732     1.2136     0.4220 N.am    
   2 C2            -0.1032    -0.1251     0.3287 C.2     
   3 C3             1.3618    -0.4871     0.2064 C.3     
   4 C4             2.0740     0.8453     0.2467 C.ar    
   5 C5             3.4029     1.1990     0.1802 C.ar    
   6 C6             3.7661     2.5330     0.2434 C.ar    
   7 C7             2.7916     3.5058     0.3732 C.ar    
   8 C8             1.4595     3.1541     0.4400 C.ar    
   9 C9             1.0860     1.8129     0.3771 C.ar    
  10 O10           -1.0377    -0.8980     0.3407 O.2     
  11 C11           -1.4281     1.9587     0.5498 C.3     
  12 O12           -1.9580     0.8364     2.6329 O.3     
  13 C13           -1.7750     2.1232     2.0309 C.3     
  14 C14           -3.1020     2.8987     2.1750 C.3     
  15 C15           -3.7890     2.1599     3.3557 C.3     
  16 C16           -3.3048     0.7078     3.1157 C.3     
  17 O17            2.9673    -3.7482     4.5229 O.3     
  18 C18            3.1245    -3.1294     5.8039 C.3     
  19 C19            1.9084    -2.2251     6.0432 C.3     
  20 N20            1.9067    -1.1650     5.0283 N.3     
  21 C21            2.0527    -1.6757     3.7323 C.ar    
  22 C22            2.5766    -2.9418     3.4978 C.ar    
  23 C23            1.6595    -0.8847     2.6579 C.ar    
  24 C24            1.7908    -1.3504     1.3647 C.ar    
  25 C25            2.3167    -2.6120     1.1308 C.ar    
  26 C26            2.7089    -3.4061     2.1974 C.ar    
  27 C27            0.6985    -0.3362     5.1347 C.3     
  28 C28            3.5627    -2.7228    -0.8042 C.2     
  29 C29            3.7248    -3.0943    -2.2556 C.3     
  30 O30            4.4368    -2.1125    -0.2355 O.2     
  31 O31            2.4471    -3.0698    -0.1431 O.3     
  32 F32            4.9587    -2.6277    -2.7214 F       
  33 F33            3.6717    -4.4858    -2.3896 F       
  34 F34            2.6945    -2.5141    -3.0034 F       
  35 H35            1.5523    -0.9935    -0.7398 H       
  36 H36            4.1610     0.4365     0.0793 H       
  37 H37            4.8077     2.8135     0.1919 H       
  38 H38            3.0753     4.5467     0.4228 H       
  39 H39            0.7044     3.9196     0.5414 H       
  40 H40           -1.3155     2.9413     0.0917 H       
  41 H41           -2.2273     1.4132     0.0479 H       
  42 H42           -0.9756     2.6601     2.5416 H       
  43 H43           -2.9158     3.9429     2.4264 H       
  44 H44           -3.6992     2.8178     1.2667 H       
  45 H45           -3.4356     2.5384     4.3149 H       
  46 H46           -4.8745     2.2290     3.2841 H       
  47 H47           -3.9297     0.2193     2.3680 H       
  48 H48           -3.3200     0.1448     4.0489 H       
  49 H49            3.1739    -3.8939     6.5792 H       
  50 H50            4.0362    -2.5320     5.8155 H       
  51 H51            0.9938    -2.8123     5.9605 H       
  52 H52            1.9726    -1.7807     7.0364 H       
  53 H53            1.2495     0.0984     2.8361 H       
  54 H54            3.1187    -4.3886     2.0154 H       
  55 H55            0.6232     0.0684     6.1441 H       
  56 H56            0.7557     0.4831     4.4182 H       
  57 H57           -0.1798    -0.9453     4.9210 H       
@<TRIPOS>BOND
   1    1    2 am
   2    1    9 1
   3    1   11 1
   4    2    3 1
   5    2   10 2
   6    3    4 1
   7    3   24 1
   8    3   35 1
   9    4    5 ar
  10    4    9 ar
  11    5    6 ar
  12    5   36 1
  13    6    7 ar
  14    6   37 1
  15    7    8 ar
  16    7   38 1
  17    8    9 ar
  18    8   39 1
  19   11   13 1
  20   11   40 1
  21   11   41 1
  22   12   13 1
  23   12   16 1
  24   13   14 1
  25   13   42 1
  26   14   15 1
  27   14   43 1
  28   14   44 1
  29   15   16 1
  30   15   45 1
  31   15   46 1
  32   16   47 1
  33   16   48 1
  34   17   18 1
  35   17   22 1
  36   18   19 1
  37   18   49 1
  38   18   50 1
  39   19   20 1
  40   19   51 1
  41   19   52 1
  42   20   21 1
  43   20   27 1
  44   21   22 ar
  45   21   23 ar
  46   22   26 ar
  47   23   24 ar
  48   23   53 1
  49   24   25 ar
  50   25   26 ar
  51   25   31 1
  52   26   54 1
  53   27   55 1
  54   27   56 1
  55   27   57 1
  56   28   29 1
  57   28   30 2
  58   28   31 1
  59   29   32 1
  60   29   33 1
  61   29   34 1

#	End of record

