#	Name: ASD00070070
#	Creating user name:	WinNT
#	Creation time:	15. 06. 2019 18:30

#	Modifying user name:	WinNT
#	Modification time:	15. 06. 2019 18:30

#	Program:	/corina/corina34_cracker 3.40 0067  02.08.2006

@<TRIPOS>MOLECULE
ASD00070070
  69   73    0    0    0
SMALL
NO_CHARGES


@<TRIPOS>ATOM
   1 O1            -0.0173     1.4282     0.0099 O.3     
   2 C2             0.0021    -0.0041     0.0020 C.3     
   3 C3             1.4796    -0.4507     0.0295 C.3     
   4 C4             2.1925     0.8037     0.6040 C.3     
   5 C5             1.3259     1.9371    -0.0002 C.3     
   6 C6             1.6644    -1.6370     0.9403 C.2     
   7 O7             2.3882    -1.5503     1.9096 O.2     
   8 N8             1.0254    -2.7942     0.6778 N.am    
   9 C9             1.2051    -3.9474     1.5633 C.3     
  10 C10           -0.0139    -4.8660     1.4582 C.3     
  11 C11            0.1737    -6.0704     2.3829 C.3     
  12 C12            1.4296    -6.8402     1.9693 C.3     
  13 C13            2.6486    -5.9216     2.0744 C.3     
  14 C14            2.4610    -4.7173     1.1497 C.3     
  15 C15            1.6173    -8.0446     2.8941 C.3     
  16 C16            2.7996    -8.8836     2.4053 C.3     
  17 N17            2.9798   -10.0399     3.2932 N.3     
  18 C18            3.9453   -10.9915     2.7286 C.3     
  19 C19            3.9988   -12.2457     3.6039 C.3     
  20 C20            4.4121   -11.8532     5.0250 C.3     
  21 C21            3.4177   -10.8252     5.5718 C.3     
  22 C22            3.3810    -9.6122     4.6394 C.3     
  23 O23            6.8266   -14.8282     7.8521 O.3     
  24 C24            7.6035   -13.6225     7.7553 C.3     
  25 C25            6.9717   -12.9044     6.5392 C.3     
  26 C26            5.5671   -13.4760     6.5333 C.ar    
  27 C27            5.5838   -14.6045     7.3435 C.ar    
  28 C28            4.4085   -13.0756     5.9063 C.ar    
  29 C29            3.2405   -13.7958     6.0861 C.ar    
  30 C30            3.2428   -14.9161     6.8961 C.ar    
  31 C31            4.4034   -15.3209     7.5228 C.ar    
  32 H32           -0.5160    -0.3857     0.8818 H       
  33 H33           -0.4798    -0.3754    -0.9024 H       
  34 H34            1.8364    -0.6732    -0.9762 H       
  35 H35            2.1505     0.8151     1.6932 H       
  36 H36            3.2222     0.8662     0.2518 H       
  37 H37            1.6416     2.1514    -1.0212 H       
  38 H38            1.3950     2.8347     0.6143 H       
  39 H39            0.4465    -2.8636    -0.0974 H       
  40 H40            1.3126    -3.6026     2.5917 H       
  41 H41           -0.9086    -4.3176     1.7528 H       
  42 H42           -0.1214    -5.2109     0.4297 H       
  43 H43            0.2812    -5.7255     3.4113 H       
  44 H44           -0.6947    -6.7248     2.3080 H       
  45 H45            1.3221    -7.1850     0.9409 H       
  46 H46            2.7561    -5.5768     3.1029 H       
  47 H47            3.5433    -6.4700     1.7798 H       
  48 H48            2.3535    -5.0621     0.1213 H       
  49 H49            3.3294    -4.0628     1.2246 H       
  50 H50            1.8132    -7.6968     3.9084 H       
  51 H51            0.7127    -8.6526     2.8869 H       
  52 H52            2.6037    -9.2313     1.3910 H       
  53 H53            3.7042    -8.2755     2.4125 H       
  54 H54            3.6374   -11.2657     1.7196 H       
  55 H55            4.9323   -10.5302     2.6943 H       
  56 H56            3.0154   -12.7152     3.6275 H       
  57 H57            4.7269   -12.9453     3.1933 H       
  58 H58            5.4117   -11.4190     5.0068 H       
  59 H59            2.4251   -11.2724     5.6263 H       
  60 H60            3.7306   -10.5099     6.5671 H       
  61 H61            4.3706    -9.1573     4.5962 H       
  62 H62            2.6633    -8.8845     5.0183 H       
  63 H63            7.4963   -13.0205     8.6576 H       
  64 H64            8.6519   -13.8529     7.5658 H       
  65 H65            6.9525   -11.8252     6.6908 H       
  66 H66            7.4994   -13.1579     5.6197 H       
  67 H67            2.3303   -13.4836     5.5957 H       
  68 H68            2.3312   -15.4773     7.0393 H       
  69 H69            4.3966   -16.1975     8.1537 H       
@<TRIPOS>BOND
   1    1    2 1
   2    1    5 1
   3    2    3 1
   4    2   32 1
   5    2   33 1
   6    3    4 1
   7    3    6 1
   8    3   34 1
   9    4    5 1
  10    4   35 1
  11    4   36 1
  12    5   37 1
  13    5   38 1
  14    6    7 2
  15    6    8 am
  16    8    9 1
  17    8   39 1
  18    9   10 1
  19    9   14 1
  20    9   40 1
  21   10   11 1
  22   10   41 1
  23   10   42 1
  24   11   12 1
  25   11   43 1
  26   11   44 1
  27   12   13 1
  28   12   15 1
  29   12   45 1
  30   13   14 1
  31   13   46 1
  32   13   47 1
  33   14   48 1
  34   14   49 1
  35   15   16 1
  36   15   50 1
  37   15   51 1
  38   16   17 1
  39   16   52 1
  40   16   53 1
  41   17   18 1
  42   17   22 1
  43   18   19 1
  44   18   54 1
  45   18   55 1
  46   19   20 1
  47   19   56 1
  48   19   57 1
  49   20   21 1
  50   20   28 1
  51   20   58 1
  52   21   22 1
  53   21   59 1
  54   21   60 1
  55   22   61 1
  56   22   62 1
  57   23   24 1
  58   23   27 1
  59   24   25 1
  60   24   63 1
  61   24   64 1
  62   25   26 1
  63   25   65 1
  64   25   66 1
  65   26   27 ar
  66   26   28 ar
  67   27   31 ar
  68   28   29 ar
  69   29   30 ar
  70   29   67 1
  71   30   31 ar
  72   30   68 1
  73   31   69 1

#	End of record

