#	Name: ASD05503046
#	Creating user name:	WinNT
#	Creation time:	15. 06. 2019 21:01

#	Modifying user name:	WinNT
#	Modification time:	15. 06. 2019 21:01

#	Program:	/corina/corina34_cracker 3.40 0067  02.08.2006

@<TRIPOS>MOLECULE
ASD05503046
  42   44    0    0    0
SMALL
NO_CHARGES


@<TRIPOS>ATOM
   1 C1            -0.1500     1.4100     0.2167 C.ar    
   2 C2            -0.1093     0.0337    -0.0096 C.ar    
   3 C3             1.1281    -0.5638    -0.2284 C.ar    
   4 C4             2.2689     0.2260    -0.2137 C.ar    
   5 N5             2.1855     1.5299     0.0056 N.ar    
   6 C6             1.0275     2.1273     0.2161 C.ar    
   7 N7            -1.2808    -0.7249    -0.0158 N.am    
   8 C8            -2.4230    -0.1969    -0.4985 C.2     
   9 O9            -2.4527     0.9625    -0.8531 O.2     
  10 C10           -3.6633    -1.0471    -0.5978 C.3     
  11 N11            3.5151    -0.3583    -0.4313 N.am    
  12 C12            4.6147     0.4151    -0.5261 C.2     
  13 C13            5.9175    -0.1919    -0.8684 C.ar    
  14 O14            4.5347     1.6121    -0.3300 O.2     
  15 C15            6.0132    -1.5661    -1.0943 C.ar    
  16 C16            7.2325    -2.1264    -1.4140 C.ar    
  17 C17            8.3599    -1.3300    -1.5108 C.ar    
  18 C18            8.2735     0.0325    -1.2884 C.ar    
  19 C19            7.0585     0.6077    -0.9733 C.ar    
  20 Br20           6.9418     2.4705    -0.6695 Br      
  21 C21           -4.8249    -0.2196    -1.1754 C.3     
  22 C22           -5.2527    -0.9145    -2.4846 C.3     
  23 C23           -4.7805    -2.3792    -2.3090 C.3     
  24 C24           -3.4258    -2.2161    -1.5760 C.3     
  25 H25           -1.0931     1.9082     0.3859 H       
  26 H26            1.1996    -1.6266    -0.4068 H       
  27 H27            1.0019     3.1928     0.3907 H       
  28 H28           -1.2730    -1.6322     0.3273 H       
  29 H29           -3.9319    -1.4315     0.3862 H       
  30 H30            3.5911    -1.3217    -0.5145 H       
  31 H31            5.1344    -2.1894    -1.0186 H       
  32 H32            7.3074    -3.1895    -1.5890 H       
  33 H33            9.3120    -1.7744    -1.7607 H       
  34 H34            9.1574     0.6483    -1.3656 H       
  35 H35           -5.6575    -0.2031    -0.4721 H       
  36 H36           -4.4915     0.7970    -1.3840 H       
  37 H37           -6.3356    -0.8743    -2.6016 H       
  38 H38           -4.7582    -0.4542    -3.3400 H       
  39 H39           -5.4855    -2.9416    -1.6969 H       
  40 H40           -4.6402    -2.8586    -3.2778 H       
  41 H41           -2.6363    -1.9660    -2.2847 H       
  42 H42           -3.1755    -3.1256    -1.0300 H       
@<TRIPOS>BOND
   1    1    2 ar
   2    1    6 ar
   3    1   25 1
   4    2    3 ar
   5    2    7 1
   6    3    4 ar
   7    3   26 1
   8    4    5 ar
   9    4   11 1
  10    5    6 ar
  11    6   27 1
  12    7    8 am
  13    7   28 1
  14    8    9 2
  15    8   10 1
  16   10   21 1
  17   10   24 1
  18   10   29 1
  19   11   12 am
  20   11   30 1
  21   12   13 1
  22   12   14 2
  23   13   15 ar
  24   13   19 ar
  25   15   16 ar
  26   15   31 1
  27   16   17 ar
  28   16   32 1
  29   17   18 ar
  30   17   33 1
  31   18   19 ar
  32   18   34 1
  33   19   20 1
  34   21   22 1
  35   21   35 1
  36   21   36 1
  37   22   23 1
  38   22   37 1
  39   22   38 1
  40   23   24 1
  41   23   39 1
  42   23   40 1
  43   24   41 1
  44   24   42 1

#	End of record

