#	Name: ASD05143034
#	Creating user name:	WinNT
#	Creation time:	15. 06. 2019 20:57

#	Modifying user name:	WinNT
#	Modification time:	15. 06. 2019 20:57

#	Program:	/corina/corina34_cracker 3.40 0067  02.08.2006

@<TRIPOS>MOLECULE
ASD05143034
 147  150    0    0    0
SMALL
NO_CHARGES


@<TRIPOS>ATOM
   1 C1            -1.5492     0.0537     0.8292 C.2     
   2 C2            -1.2379    -1.3934     1.1118 C.3     
   3 N3            -0.5466     0.9341     0.6392 N.am    
   4 O4            -2.7021     0.4252     0.7677 O.2     
   5 C5            -0.8492     2.3409     0.3644 C.3     
   6 C6            -1.6788     2.4433    -0.9171 C.3     
   7 C7            -1.6297     2.9210     1.5157 C.2     
   8 C8            -0.8406     1.9698    -2.1063 C.3     
   9 C9            -1.6701     2.0722    -3.3879 C.3     
  10 N10           -0.8676     1.6189    -4.5266 N.pl3   
  11 C11           -1.4063     1.6209    -5.7915 C.2     
  12 N12           -0.6532     1.1954    -6.8601 N.pl3   
  13 N13           -2.6311     2.0261    -5.9775 N.2     
  14 O14           -2.2153     2.1862     2.2827 O.2     
  15 N15           -1.6771     4.2562     1.6930 N.am    
  16 C16           -2.4358     4.8200     2.8122 C.3     
  17 C17           -1.4747     5.5021     3.7878 C.3     
  18 C18           -0.2861     4.5791     4.0631 C.3     
  19 C19            0.7861     4.8187     3.0318 C.2     
  20 O20            0.5039     4.9016     1.8552 O.2     
  21 N21            2.0821     4.9414     3.4467 N.am    
  22 C22            3.0736     5.1687     2.3707 C.3     
  23 C23            3.1887     6.6736     2.1203 C.3     
  24 C24            3.7578     6.9152     0.7207 C.3     
  25 C25            4.7057     8.1157     0.7550 C.3     
  26 N26            4.5609     8.8731    -0.5044 N.am    
  27 C27            6.1266     7.6334     0.8938 C.2     
  28 N28            6.5998     7.2696     2.1022 N.am    
  29 O29            6.8444     7.5725    -0.0819 O.2     
  30 C30            3.7213     9.9439    -0.4769 C.2     
  31 O31            3.1400    10.2424     0.5448 O.2     
  32 C32            3.5235    10.7544    -1.7320 C.3     
  33 N33            2.3063    11.5826    -1.5710 N.am    
  34 C34            4.7359    11.6605    -1.9549 C.3     
  35 C35            1.2102    11.1530    -2.2643 C.2     
  36 O36            1.2684    10.1605    -2.9589 O.2     
  37 C37           -0.0726    11.9355    -2.1491 C.3     
  38 N38           -1.2085    11.0314    -2.4184 N.am    
  39 C39           -0.1979    12.5094    -0.7364 C.3     
  40 C40           -2.2592    11.0997    -1.5553 C.2     
  41 O41           -2.2362    11.8685    -0.6176 O.2     
  42 C42           -3.4515    10.2064    -1.7823 C.3     
  43 C43            4.5913    12.3780    -3.2723 C.2     
  44 C44            3.8601    13.6249    -3.5097 C.ar    
  45 C45            4.0041    13.9049    -4.8807 C.ar    
  46 N46            4.7677    12.8958    -5.4234 N.pl3   
  47 C47            5.1130    11.9988    -4.4495 C.2     
  48 C48            3.1247    14.4888    -2.6957 C.ar    
  49 C49            2.5479    15.6032    -3.2360 C.ar    
  50 C50            2.6867    15.8837    -4.5886 C.ar    
  51 C51            3.4085    15.0456    -5.4096 C.ar    
  52 N52           -3.9456     9.7318    -0.4696 N.am    
  53 C53           -3.0392     9.0080    -2.6394 C.3     
  54 C54           -2.9139     9.4387    -4.0781 C.ar    
  55 C55           -2.5257     8.5266    -5.0413 C.ar    
  56 C56           -2.4107     8.9218    -6.3611 C.ar    
  57 C57           -2.6844    10.2289    -6.7175 C.ar    
  58 C58           -3.0736    11.1410    -5.7542 C.ar    
  59 C59           -3.1927    10.7449    -4.4354 C.ar    
  60 C60           -3.4235     5.8319     2.2905 C.2     
  61 N61           -2.9578     6.9749     1.7163 N.am    
  62 O62           -4.6161     5.6304     2.3806 O.2     
  63 C63           -3.9723     7.9284     1.2245 C.3     
  64 C64           -4.1417     9.0639     2.2359 C.3     
  65 C65           -3.5110     8.4920    -0.0948 C.2     
  66 C66           -4.7129     8.5041     3.5402 C.3     
  67 N67           -4.8754     9.5943     4.5113 N.3     
  68 O68           -2.7673     7.8560    -0.8114 O.2     
  69 C69           -0.1672    11.3683     0.2823 C.3     
  70 C70           -0.1840    11.9479     1.6981 C.3     
  71 N71           -0.1546    10.8552     2.6735 N.pl3   
  72 C72           -0.1632    11.1349     4.0196 C.2     
  73 N73           -0.1356    10.1095     4.9350 N.pl3   
  74 N74           -0.1974    12.3722     4.4279 N.2     
  75 N75           -2.2326     7.1268    -4.6596 N.pl3   
  76 O76           -1.9807     6.3013    -5.5190 O.2     
  77 O77           -2.2434     6.8006    -3.4862 O.2     
  78 H78           -1.1476    -1.5422     2.1878 H       
  79 H79           -2.0412    -2.0202     0.7245 H       
  80 H80           -0.2998    -1.6645     0.6275 H       
  81 H81            0.3754     0.6362     0.6844 H       
  82 H82            0.0811     2.8952     0.2403 H       
  83 H83           -2.5666     1.8174    -0.8262 H       
  84 H84           -1.9791     3.4793    -1.0738 H       
  85 H85            0.0472     2.5957    -2.1972 H       
  86 H86           -0.5403     0.9338    -1.9497 H       
  87 H87           -2.5579     1.4463    -3.2970 H       
  88 H88           -1.9704     3.1082    -3.5445 H       
  89 H89            0.0439     1.3173    -4.3881 H       
  90 H90            0.2583     0.8939    -6.7216 H       
  91 H91           -1.0333     1.1969    -7.7525 H       
  92 H92           -3.0112     2.0275    -6.8700 H       
  93 H93           -1.2088     4.8438     1.0796 H       
  94 H94           -2.9707     4.0221     3.3272 H       
  95 H95           -1.1168     6.4352     3.3525 H       
  96 H96           -1.9947     5.7133     4.7222 H       
  97 H97            0.1123     4.7863     5.0563 H       
  98 H98           -0.6133     3.5406     4.0124 H       
  99 H99            2.3351     4.8840     4.3814 H       
 100 H100           4.0423     4.7737     2.6767 H       
 101 H101           2.7444     4.6704     1.4588 H       
 102 H102           2.2022     7.1310     2.1954 H       
 103 H103           3.8520     7.1160     2.8636 H       
 104 H104           4.3037     6.0305     0.3929 H       
 105 H105           2.9418     7.1163     0.0265 H       
 106 H106           4.4517     8.7576     1.5985 H       
 107 H107           5.0392     8.6204    -1.3096 H       
 108 H108           6.0257     7.3183     2.8826 H       
 109 H109           7.5144     6.9592     2.1915 H       
 110 H110           3.4012    10.0857    -2.5840 H       
 111 H111           2.2887    12.3754    -1.0124 H       
 112 H112           4.7968    12.3910    -1.1482 H       
 113 H113           5.6433    11.0568    -1.9677 H       
 114 H114          -0.0717    12.7474    -2.8764 H       
 115 H115          -1.2061    10.4200    -3.1714 H       
 116 H116           0.6324    13.1893    -0.5455 H       
 117 H117          -1.1394    13.0514    -0.6466 H       
 118 H118          -4.2376    10.7673    -2.2878 H       
 119 H119           5.0256    12.8323    -6.3563 H       
 120 H120           5.7103    11.1127    -4.6064 H       
 121 H121           3.0119    14.2765    -1.6428 H       
 122 H122           1.9792    16.2711    -2.6060 H       
 123 H123           2.2246    16.7684    -5.0012 H       
 124 H124           3.5109    15.2727    -6.4604 H       
 125 H125          -4.5364    10.2642     0.0857 H       
 126 H126          -2.0806     8.6242    -2.2903 H       
 127 H127          -3.7947     8.2264    -2.5586 H       
 128 H128          -2.1067     8.2093    -7.1136 H       
 129 H129          -2.5939    10.5377    -7.7485 H       
 130 H130          -3.2870    12.1625    -6.0326 H       
 131 H131          -3.4967    11.4574    -3.6829 H       
 132 H132          -2.0080     7.1541     1.6347 H       
 133 H133          -4.9236     7.4132     1.0911 H       
 134 H134          -3.1730     9.5239     2.4313 H       
 135 H135          -4.8240     9.8117     1.8318 H       
 136 H136          -5.6815     8.0442     3.3448 H       
 137 H137          -4.0305     7.7564     3.9443 H       
 138 H138          -5.2516     9.2500     5.3819 H       
 139 H139          -4.0029    10.0786     4.6607 H       
 140 H140          -1.0400    10.7309     0.1402 H       
 141 H141           0.7393    10.7797     0.1413 H       
 142 H142           0.6887    12.5853     1.8401 H       
 143 H143          -1.0906    12.5365     1.8390 H       
 144 H144          -0.1292     9.9344     2.3696 H       
 145 H145          -0.1101     9.1886     4.6311 H       
 146 H146          -0.1416    10.3068     5.8847 H       
 147 H147          -0.2034    12.5696     5.3776 H       
@<TRIPOS>BOND
   1    1    2 1
   2    1    3 am
   3    1    4 2
   4    2   78 1
   5    2   79 1
   6    2   80 1
   7    3    5 1
   8    3   81 1
   9    5    6 1
  10    5    7 1
  11    5   82 1
  12    6    8 1
  13    6   83 1
  14    6   84 1
  15    7   14 2
  16    7   15 am
  17    8    9 1
  18    8   85 1
  19    8   86 1
  20    9   10 1
  21    9   87 1
  22    9   88 1
  23   10   11 1
  24   10   89 1
  25   11   12 1
  26   11   13 2
  27   12   90 1
  28   12   91 1
  29   13   92 1
  30   15   16 1
  31   15   93 1
  32   16   17 1
  33   16   60 1
  34   16   94 1
  35   17   18 1
  36   17   95 1
  37   17   96 1
  38   18   19 1
  39   18   97 1
  40   18   98 1
  41   19   20 2
  42   19   21 am
  43   21   22 1
  44   21   99 1
  45   22   23 1
  46   22  100 1
  47   22  101 1
  48   23   24 1
  49   23  102 1
  50   23  103 1
  51   24   25 1
  52   24  104 1
  53   24  105 1
  54   25   26 1
  55   25   27 1
  56   25  106 1
  57   26   30 am
  58   26  107 1
  59   27   28 am
  60   27   29 2
  61   28  108 1
  62   28  109 1
  63   30   31 2
  64   30   32 1
  65   32   33 1
  66   32   34 1
  67   32  110 1
  68   33   35 am
  69   33  111 1
  70   34   43 1
  71   34  112 1
  72   34  113 1
  73   35   36 2
  74   35   37 1
  75   37   38 1
  76   37   39 1
  77   37  114 1
  78   38   40 am
  79   38  115 1
  80   39   69 1
  81   39  116 1
  82   39  117 1
  83   40   41 2
  84   40   42 1
  85   42   52 1
  86   42   53 1
  87   42  118 1
  88   43   44 1
  89   43   47 2
  90   44   45 ar
  91   44   48 ar
  92   45   46 1
  93   45   51 ar
  94   46   47 1
  95   46  119 1
  96   47  120 1
  97   48   49 ar
  98   48  121 1
  99   49   50 ar
 100   49  122 1
 101   50   51 ar
 102   50  123 1
 103   51  124 1
 104   52   65 am
 105   52  125 1
 106   53   54 1
 107   53  126 1
 108   53  127 1
 109   54   55 ar
 110   54   59 ar
 111   55   56 ar
 112   55   75 1
 113   56   57 ar
 114   56  128 1
 115   57   58 ar
 116   57  129 1
 117   58   59 ar
 118   58  130 1
 119   59  131 1
 120   60   61 am
 121   60   62 2
 122   61   63 1
 123   61  132 1
 124   63   64 1
 125   63   65 1
 126   63  133 1
 127   64   66 1
 128   64  134 1
 129   64  135 1
 130   65   68 2
 131   66   67 1
 132   66  136 1
 133   66  137 1
 134   67  138 1
 135   67  139 1
 136   69   70 1
 137   69  140 1
 138   69  141 1
 139   70   71 1
 140   70  142 1
 141   70  143 1
 142   71   72 1
 143   71  144 1
 144   72   73 1
 145   72   74 2
 146   73  145 1
 147   73  146 1
 148   74  147 1
 149   75   76 2
 150   75   77 2

#	End of record

