#	Name: ASD03090552
#	Creating user name:	WinNT
#	Creation time:	15. 06. 2019 20:29

#	Modifying user name:	WinNT
#	Modification time:	15. 06. 2019 20:29

#	Program:	/corina/corina34_cracker 3.40 0067  02.08.2006

@<TRIPOS>MOLECULE
ASD03090552
  44   47    0    0    0
SMALL
NO_CHARGES


@<TRIPOS>ATOM
   1 C1            -0.0924     1.5034    -0.4856 C.2     
   2 C2            -0.0558    -0.0031    -0.4707 C.3     
   3 O3             0.8186     2.1272    -0.9877 O.2     
   4 N4            -1.1401     2.1574     0.0539 N.am    
   5 C5            -1.1216     3.5552     0.1453 C.ar    
   6 C6            -2.2990     4.2765    -0.0009 C.ar    
   7 C7            -2.2801     5.6542     0.0892 C.ar    
   8 C8            -1.0849     6.3179     0.3260 C.ar    
   9 C9             0.0921     5.5977     0.4718 C.ar    
  10 C10            0.0734     4.2196     0.3880 C.ar    
  11 O11           -1.0669     7.6743     0.4147 O.3     
  12 C12           -0.4122     8.3682    -0.5529 C.ar    
  13 C13            0.1094     7.7029    -1.6532 C.ar    
  14 C14            0.7741     8.4107    -2.6356 C.ar    
  15 C15            0.9204     9.7811    -2.5231 C.ar    
  16 C16            0.4016    10.4466    -1.4277 C.ar    
  17 C17           -0.2690     9.7442    -0.4452 C.ar    
  18 N18            4.7928    -1.7860    -2.7156 N.pl3   
  19 C19            5.5750    -1.8119    -1.5932 C.2     
  20 C20            4.8596    -1.4188    -0.5276 C.2     
  21 C21            3.5087    -1.1163    -1.0068 C.ar    
  22 C22            2.3370    -0.6726    -0.3904 C.ar    
  23 C23            1.2086    -0.4815    -1.1367 C.ar    
  24 C24            1.2173    -0.7249    -2.5035 C.ar    
  25 C25            2.3621    -1.1634    -3.1316 C.ar    
  26 C26            3.5227    -1.3648    -2.3913 C.ar    
  27 H27           -0.0799    -0.3569     0.5600 H       
  28 H28           -0.9198    -0.3929    -1.0089 H       
  29 H29           -1.9070     1.6602     0.3789 H       
  30 H30           -3.2294     3.7600    -0.1856 H       
  31 H31           -3.1958     6.2153    -0.0249 H       
  32 H32            1.0223     6.1148     0.6554 H       
  33 H33            0.9887     3.6587     0.5066 H       
  34 H34           -0.0039     6.6324    -1.7412 H       
  35 H35            1.1803     7.8934    -3.4922 H       
  36 H36            1.4410    10.3326    -3.2920 H       
  37 H37            0.5175    11.5169    -1.3420 H       
  38 H38           -0.6779    10.2651     0.4079 H       
  39 H39            5.0899    -2.0248    -3.6076 H       
  40 H40            6.6140    -2.1056    -1.5683 H       
  41 H41            5.2129    -1.3403     0.4899 H       
  42 H42            2.3224    -0.4821     0.6725 H       
  43 H43            0.3174    -0.5691    -3.0799 H       
  44 H44            2.3588    -1.3503    -4.1953 H       
@<TRIPOS>BOND
   1    1    2 1
   2    1    3 2
   3    1    4 am
   4    2   23 1
   5    2   27 1
   6    2   28 1
   7    4    5 1
   8    4   29 1
   9    5    6 ar
  10    5   10 ar
  11    6    7 ar
  12    6   30 1
  13    7    8 ar
  14    7   31 1
  15    8    9 ar
  16    8   11 1
  17    9   10 ar
  18    9   32 1
  19   10   33 1
  20   11   12 1
  21   12   13 ar
  22   12   17 ar
  23   13   14 ar
  24   13   34 1
  25   14   15 ar
  26   14   35 1
  27   15   16 ar
  28   15   36 1
  29   16   17 ar
  30   16   37 1
  31   17   38 1
  32   18   19 1
  33   18   26 1
  34   18   39 1
  35   19   20 2
  36   19   40 1
  37   20   21 1
  38   20   41 1
  39   21   22 ar
  40   21   26 ar
  41   22   23 ar
  42   22   42 1
  43   23   24 ar
  44   24   25 ar
  45   24   43 1
  46   25   26 ar
  47   25   44 1

#	End of record

