#	Name: ASD01812202
#	Creating user name:	WinNT
#	Creation time:	15. 06. 2019 19:28

#	Modifying user name:	WinNT
#	Modification time:	15. 06. 2019 19:28

#	Program:	/corina/corina34_cracker 3.40 0067  02.08.2006

@<TRIPOS>MOLECULE
ASD01812202
  70   75    0    0    0
SMALL
NO_CHARGES


@<TRIPOS>ATOM
   1 C1             0.1168     1.3800     0.1798 C.ar    
   2 C2             0.1001    -0.0118     0.1208 C.ar    
   3 C3             1.2589    -0.7263     0.0853 C.ar    
   4 C4             2.4918    -0.0550     0.1080 C.ar    
   5 C5             2.5096     1.3629     0.1677 C.ar    
   6 C6             1.2922     2.0658     0.2035 C.ar    
   7 C7             3.7073    -0.7627     0.0722 C.ar    
   8 C8             4.8876    -0.0941     0.0945 C.ar    
   9 C9             4.9218     1.3130     0.1541 C.ar    
  10 C10            3.7379     2.0325     0.1899 C.ar    
  11 C11            3.6982    -2.2683     0.0093 C.3     
  12 C12            6.0464     2.2686     0.1893 C.2     
  13 N13            5.5856     3.5300     0.2450 N.am    
  14 C14            4.1188     3.4904     0.2501 C.3     
  15 O15            7.2217     1.9588     0.1709 O.2     
  16 C16            6.4092     4.7406     0.2925 C.3     
  17 C17            7.2860     4.8104    -0.9594 C.3     
  18 C18            8.1461     6.0747    -0.9099 C.3     
  19 C19            9.0357     6.0379     0.3343 C.3     
  20 C20            8.1590     5.9682     1.5863 C.3     
  21 C21            7.2988     4.7038     1.5367 C.3     
  22 N22            3.4477    -2.6992    -1.3725 N.3     
  23 C23            3.6650    -4.1450    -1.5210 C.3     
  24 C24            3.3179    -4.5662    -2.9508 C.3     
  25 N25            4.1512    -3.8114    -3.8971 N.3     
  26 C26            3.9339    -2.3656    -3.7486 C.3     
  27 C27            4.2810    -1.9444    -2.3188 C.3     
  28 C28            3.9131    -4.2211    -5.2110 C.ar    
  29 C29            4.9694    -4.6305    -6.0148 C.ar    
  30 C30            4.7304    -5.0354    -7.3133 C.ar    
  31 C31            3.4412    -5.0336    -7.8136 C.ar    
  32 C32            2.3873    -4.6266    -7.0161 C.ar    
  33 C33            2.6187    -4.2254    -5.7150 C.ar    
  34 O34            6.4551     4.8447    -2.1216 O.3     
  35 C35            3.5819    -6.0637    -3.1202 C.3     
  36 H36           -0.8166     1.9229     0.2028 H       
  37 H37           -0.8462    -0.5321     0.1031 H       
  38 H38            1.2296    -1.8050     0.0404 H       
  39 H39            1.2899     3.1449     0.2486 H       
  40 H40            5.8140    -0.6485     0.0666 H       
  41 H41            4.6634    -2.6517     0.3402 H       
  42 H42            2.9121    -2.6543     0.6584 H       
  43 H43            3.7266     4.0165    -0.6203 H       
  44 H44            3.7347     3.9406     1.1654 H       
  45 H45            5.7636     5.6179     0.3332 H       
  46 H46            7.9316     3.9331    -1.0002 H       
  47 H47            8.7708     6.1244    -1.8018 H       
  48 H48            7.5005     6.9520    -0.8691 H       
  49 H49            9.6814     5.1606     0.2936 H       
  50 H50            9.6485     6.9386     0.3696 H       
  51 H51            8.7928     5.9419     2.4727 H       
  52 H52            7.5134     6.8454     1.6270 H       
  53 H53            6.6742     4.6541     2.4286 H       
  54 H54            7.9444     3.8265     1.4960 H       
  55 H55            4.7099    -4.3785    -1.3166 H       
  56 H56            3.0279    -4.6825    -0.8187 H       
  57 H57            2.2659    -4.3580    -3.1460 H       
  58 H58            4.5710    -1.8281    -4.4509 H       
  59 H59            2.8890    -2.1321    -3.9530 H       
  60 H60            4.0930    -0.8775    -2.1981 H       
  61 H61            5.3329    -2.1529    -2.1235 H       
  62 H62            5.9766    -4.6319    -5.6248 H       
  63 H63            5.5513    -5.3535    -7.9389 H       
  64 H64            3.2571    -5.3504    -8.8295 H       
  65 H65            1.3817    -4.6263    -7.4099 H       
  66 H66            1.7951    -3.9080    -5.0926 H       
  67 H67            6.9450     4.8894    -2.9541 H       
  68 H68            3.0404    -6.6171    -2.3529 H       
  69 H69            3.2432    -6.3832    -4.1058 H       
  70 H70            4.6500    -6.2577    -3.0224 H       
@<TRIPOS>BOND
   1    1    2 ar
   2    1    6 ar
   3    1   36 1
   4    2    3 ar
   5    2   37 1
   6    3    4 ar
   7    3   38 1
   8    4    5 ar
   9    4    7 ar
  10    5    6 ar
  11    5   10 ar
  12    6   39 1
  13    7    8 ar
  14    7   11 1
  15    8    9 ar
  16    8   40 1
  17    9   10 ar
  18    9   12 1
  19   10   14 1
  20   11   22 1
  21   11   41 1
  22   11   42 1
  23   12   13 am
  24   12   15 2
  25   13   14 1
  26   13   16 1
  27   14   43 1
  28   14   44 1
  29   16   17 1
  30   16   21 1
  31   16   45 1
  32   17   18 1
  33   17   34 1
  34   17   46 1
  35   18   19 1
  36   18   47 1
  37   18   48 1
  38   19   20 1
  39   19   49 1
  40   19   50 1
  41   20   21 1
  42   20   51 1
  43   20   52 1
  44   21   53 1
  45   21   54 1
  46   22   23 1
  47   22   27 1
  48   23   24 1
  49   23   55 1
  50   23   56 1
  51   24   35 1
  52   24   25 1
  53   24   57 1
  54   25   26 1
  55   25   28 1
  56   26   27 1
  57   26   58 1
  58   26   59 1
  59   27   60 1
  60   27   61 1
  61   28   29 ar
  62   28   33 ar
  63   29   30 ar
  64   29   62 1
  65   30   31 ar
  66   30   63 1
  67   31   32 ar
  68   31   64 1
  69   32   33 ar
  70   32   65 1
  71   33   66 1
  72   34   67 1
  73   35   68 1
  74   35   69 1
  75   35   70 1

#	End of record

