#	Name: ASD04370001
#	Creating user name:	WinNT
#	Creation time:	15. 06. 2019 20:48

#	Modifying user name:	WinNT
#	Modification time:	15. 06. 2019 20:48

#	Program:	/corina/corina34_cracker 3.40 0067  02.08.2006

@<TRIPOS>MOLECULE
ASD04370001
  92   94    0    0    0
SMALL
NO_CHARGES


@<TRIPOS>ATOM
   1 C1             2.9619     3.1535    -1.4391 C.ar    
   2 C2             2.7829     1.7666    -1.5745 C.ar    
   3 N3             1.5880     1.3004    -1.9234 N.ar    
   4 C4             0.5839     2.1233    -2.1399 C.ar    
   5 N5             0.7039     3.4337    -2.0257 N.ar    
   6 C6             1.8584     3.9911    -1.6761 C.ar    
   7 N7             1.9743     5.3651    -1.5585 N.pl3   
   8 N8             4.2525     3.3565    -1.0812 N.2     
   9 C9             4.8623     2.2104    -0.9905 C.2     
  10 N10            3.9978     1.1985    -1.2854 N.pl3   
  11 C11            4.3088    -0.2331    -1.2918 C.3     
  12 O12            5.4459    -0.5044    -0.4438 O.3     
  13 C13            5.9608    -1.7767    -0.8932 C.3     
  14 C14            5.8643    -1.7196    -2.4339 C.3     
  15 C15            4.7525    -0.6807    -2.7022 C.3     
  16 C16            7.4174    -1.9461    -0.4566 C.3     
  17 O17            3.6623    -1.2836    -3.4023 O.3     
  18 O18            5.4947    -2.9957    -2.9601 O.3     
  19 P19            6.4173    -3.8200    -3.9905 P.3     
  20 O20            5.7562    -5.2615    -4.2678 O.3     
  21 O21            6.5330    -3.0073    -5.3755 O.3     
  22 O22            7.7666    -3.9995    -3.4096 O.2     
  23 O23            7.4799    -2.0394     0.9680 O.3     
  24 P24            8.8609    -2.2240     1.7748 P.3     
  25 O25            8.5707    -2.1593     3.3571 O.3     
  26 O26            9.5112    -3.6500     1.4063 O.3     
  27 O27            9.7992    -1.1424     1.4007 O.2     
  28 P28            9.4843    -1.8701     4.6508 P.3     
  29 O29            8.5392    -1.5624     5.9174 O.3     
  30 O30           10.3967    -3.1595     4.9627 O.3     
  31 O31           10.3544    -0.7017     4.3891 O.2     
  32 C32            9.0501    -1.1651     7.1915 C.3     
  33 C33            7.8878    -0.9551     8.1640 C.3     
  34 C34            8.4348    -0.5297     9.5281 C.3     
  35 C35            6.9612     0.1358     7.6234 C.3     
  36 C36            7.1052    -2.2613     8.3131 C.3     
  37 C37            9.2856     0.7035     9.3659 C.2     
  38 O38            9.2269    -1.5863    10.0743 O.3     
  39 N39            8.7088     1.8868     9.0766 N.am    
  40 O40           10.4892     0.6313     9.4956 O.2     
  41 C41            9.5418     3.0627     8.8128 C.3     
  42 C42            8.6454     4.2659     8.5134 C.3     
  43 C43            9.5023     5.4755     8.2421 C.2     
  44 N44            8.9255     6.6588     7.9528 N.am    
  45 O45           10.7110     5.3842     8.2840 O.2     
  46 C46            9.7586     7.8347     7.6890 C.3     
  47 C47            8.8622     9.0379     7.3897 C.3     
  48 S48            9.8914    10.4908     7.0638 S.3     
  49 C49            8.6738    11.6573     6.7676 C.2     
  50 C50            9.0551    13.0776     6.4385 C.3     
  51 O51            7.5039    11.3405     6.8228 O.2     
  52 C52            7.8078    13.8958     6.2242 C.2     
  53 O53            7.9045    15.1991     5.9179 O.3     
  54 O54            6.7208    13.3786     6.3280 O.2     
  55 H55           -0.3739     1.7117    -2.4220 H       
  56 H56            1.2074     5.9331    -1.7319 H       
  57 H57            2.8225     5.7601    -1.3026 H       
  58 H58            5.9001     2.0801    -0.7215 H       
  59 H59            3.4443    -0.8099    -0.9633 H       
  60 H60            5.3502    -2.5917    -0.5047 H       
  61 H61            6.8093    -1.3873    -2.8637 H       
  62 H62            5.1478     0.1651    -3.2646 H       
  63 H63            7.8258    -2.8549    -0.8986 H       
  64 H64            7.9990    -1.0867    -0.7903 H       
  65 H65            2.9357    -0.6759    -3.5968 H       
  66 H66            6.2598    -5.8137    -4.8814 H       
  67 H67            5.6846    -2.8527    -5.8129 H       
  68 H68            8.9499    -4.4065     1.6247 H       
  69 H69            9.8918    -3.9640     5.1440 H       
  70 H70            9.7102    -1.9423     7.5766 H       
  71 H71            9.6077    -0.2346     7.0852 H       
  72 H72            7.6050    -0.3128    10.2008 H       
  73 H73            6.4738    -0.2187     6.7152 H       
  74 H74            6.2055     0.3744     8.3718 H       
  75 H75            7.5441     1.0288     7.3981 H       
  76 H76            7.7909    -3.0682     8.5717 H       
  77 H77            6.3605    -2.1507     9.1014 H       
  78 H78            6.6067    -2.4955     7.3726 H       
  79 H79            9.9851    -1.8327     9.5270 H       
  80 H80            7.7421     1.9598     9.0430 H       
  81 H81           10.1564     3.2762     9.6873 H       
  82 H82           10.1856     2.8669     7.9553 H       
  83 H83            8.0308     4.0525     7.6389 H       
  84 H84            8.0016     4.4617     9.3709 H       
  85 H85            7.9589     6.7318     7.9193 H       
  86 H86           10.3732     8.0482     8.5636 H       
  87 H87           10.4024     7.6390     6.8315 H       
  88 H88            8.2476     8.8245     6.5151 H       
  89 H89            8.2184     9.2337     8.2472 H       
  90 H90            9.6295    13.5000     7.2630 H       
  91 H91            9.6587    13.0907     5.5310 H       
  92 H92            7.0768    15.6825     5.7897 H       
@<TRIPOS>BOND
   1    1    2 ar
   2    1    8 1
   3    1    6 ar
   4    2    3 ar
   5    2   10 1
   6    3    4 ar
   7    4    5 ar
   8    4   55 1
   9    5    6 ar
  10    6    7 1
  11    7   56 1
  12    7   57 1
  13    8    9 2
  14    9   10 1
  15    9   58 1
  16   10   11 1
  17   11   12 1
  18   11   15 1
  19   11   59 1
  20   12   13 1
  21   13   14 1
  22   13   16 1
  23   13   60 1
  24   14   15 1
  25   14   18 1
  26   14   61 1
  27   15   17 1
  28   15   62 1
  29   16   23 1
  30   16   63 1
  31   16   64 1
  32   17   65 1
  33   18   19 1
  34   19   20 1
  35   19   21 1
  36   19   22 2
  37   20   66 1
  38   21   67 1
  39   23   24 1
  40   24   25 1
  41   24   26 1
  42   24   27 2
  43   25   28 1
  44   26   68 1
  45   28   29 1
  46   28   30 1
  47   28   31 2
  48   29   32 1
  49   30   69 1
  50   32   33 1
  51   32   70 1
  52   32   71 1
  53   33   34 1
  54   33   35 1
  55   33   36 1
  56   34   37 1
  57   34   38 1
  58   34   72 1
  59   35   73 1
  60   35   74 1
  61   35   75 1
  62   36   76 1
  63   36   77 1
  64   36   78 1
  65   37   39 am
  66   37   40 2
  67   38   79 1
  68   39   41 1
  69   39   80 1
  70   41   42 1
  71   41   81 1
  72   41   82 1
  73   42   43 1
  74   42   83 1
  75   42   84 1
  76   43   44 am
  77   43   45 2
  78   44   46 1
  79   44   85 1
  80   46   47 1
  81   46   86 1
  82   46   87 1
  83   47   48 1
  84   47   88 1
  85   47   89 1
  86   48   49 1
  87   49   50 1
  88   49   51 2
  89   50   52 1
  90   50   90 1
  91   50   91 1
  92   52   53 1
  93   52   54 2
  94   53   92 1

#	End of record

