#	Name: ASD01410529
#	Creating user name:	WinNT
#	Creation time:	15. 06. 2019 19:18

#	Modifying user name:	WinNT
#	Modification time:	15. 06. 2019 19:18

#	Program:	/corina/corina34_cracker 3.40 0067  02.08.2006

@<TRIPOS>MOLECULE
ASD01410529
  88   91    0    0    0
SMALL
NO_CHARGES


@<TRIPOS>ATOM
   1 C1             6.8072     8.7367     0.2896 C.ar    
   2 C2             7.4300     8.1948    -0.8330 C.ar    
   3 C3             7.7984     6.8574    -0.8219 C.ar    
   4 N4             7.5646     6.1026     0.2346 N.ar    
   5 C5             6.9758     6.5838     1.3164 C.ar    
   6 C6             6.5796     7.9133     1.3782 C.ar    
   7 O7             6.7562     5.7684     2.3795 O.3     
   8 C8             7.0623     4.4499     2.2468 C.ar    
   9 C9             8.3804     4.0250     2.3941 C.ar    
  10 C10            8.7013     2.6868     2.2610 C.ar    
  11 C11            7.7102     1.7580     1.9800 C.ar    
  12 C12            6.3799     2.1809     1.8310 C.ar    
  13 C13            6.0641     3.5355     1.9720 C.ar    
  14 F14            9.3501     4.9249     2.6679 F       
  15 N15            8.0342     0.4088     1.8454 N.am    
  16 C16            7.9904    -0.4050     2.9189 C.2     
  17 C17            8.4222    -0.1244     0.5373 C.3     
  18 O18            8.1761    -1.5960     2.7848 O.2     
  19 C19            7.7107     0.1649     4.2856 C.3     
  20 C20            8.1524    -0.8357     5.3555 C.3     
  21 C21            7.3790    -2.1441     5.1805 C.3     
  22 C22            5.8799    -1.8734     5.3232 C.3     
  23 C23            5.4382    -0.8729     4.2533 C.3     
  24 C24            6.2117     0.4356     4.4283 C.3     
  25 N25            7.6803     8.9897    -1.9577 N.3     
  26 C26            8.1840     0.9381    -0.5376 C.3     
  27 C27            9.9044    -0.5033     0.5602 C.3     
  28 C28            5.1064    -3.1819     5.1482 C.3     
  29 C29            6.4505     2.2116    -1.5952 C.3     
  30 O30            6.7802     1.1622    -0.6829 O.3     
  31 O31           10.1057    -1.5840     1.4732 O.3     
  32 C32           11.4639    -2.0173     1.5705 C.3     
  33 C33            7.8862    10.3983    -1.5739 C.3     
  34 C34            9.2700    10.8208    -2.1105 C.3     
  35 C35            9.5259     9.8053    -3.2552 C.3     
  36 C36            8.8797     8.5191    -2.6827 C.3     
  37 N37            9.2276    12.1929    -2.6333 N.3     
  38 C38            8.9477    13.1566    -1.5605 C.3     
  39 C39           10.4760    12.5294    -3.3306 C.3     
  40 C40            5.3214     1.2016     1.5326 C.2     
  41 O41            5.5926     0.0198     1.4498 O.2     
  42 O42            4.0517     1.6158     1.3514 O.3     
  43 C43            5.9097     8.4529     2.6156 C.3     
  44 F44            5.6100     9.8069     2.4310 F       
  45 F45            4.7285     7.7421     2.8540 F       
  46 F46            6.7687     8.3105     3.7106 F       
  47 H47            6.5133     9.7757     0.3112 H       
  48 H48            8.2816     6.4293    -1.6877 H       
  49 H49            9.7256     2.3641     2.3758 H       
  50 H50            5.0426     3.8675     1.8590 H       
  51 H51            7.8247    -1.0081     0.3134 H       
  52 H52            8.2618     1.0970     4.4103 H       
  53 H53            9.2204    -1.0285     5.2539 H       
  54 H54            7.9501    -0.4235     6.3441 H       
  55 H55            7.5813    -2.5563     4.1919 H       
  56 H56            7.6936    -2.8569     5.9427 H       
  57 H57            5.6776    -1.4612     6.3118 H       
  58 H58            5.6405    -1.2851     3.2647 H       
  59 H59            4.3702    -0.6800     4.3550 H       
  60 H60            6.0094     0.8478     5.4169 H       
  61 H61            5.8970     1.1484     3.6661 H       
  62 H62            8.6719     1.8676    -0.2442 H       
  63 H63            8.5972     0.5945    -1.4859 H       
  64 H64           10.2169    -0.8083    -0.4385 H       
  65 H65           10.4942     0.3562     0.8788 H       
  66 H66            5.4211    -3.8947     5.9104 H       
  67 H67            4.0385    -2.9890     5.2498 H       
  68 H68            5.3087    -3.5941     4.1596 H       
  69 H69            5.3684     2.2607    -1.7168 H       
  70 H70            6.8157     3.1612    -1.2040 H       
  71 H71            6.9160     2.0133    -2.5606 H       
  72 H72           12.0861    -1.1893     1.9100 H       
  73 H73           11.5329    -2.8395     2.2828 H       
  74 H74           11.8088    -2.3538     0.5927 H       
  75 H75            7.1100    11.0211    -2.0188 H       
  76 H76            7.8644    10.4939    -0.4884 H       
  77 H77           10.0296    10.7262    -1.3345 H       
  78 H78            9.0273    10.1176    -4.1728 H       
  79 H79           10.5940     9.6651    -3.4213 H       
  80 H80            9.5665     8.0220    -1.9977 H       
  81 H81            8.5947     7.8456    -3.4909 H       
  82 H82            9.7296    13.0950    -0.8036 H       
  83 H83            8.9218    14.1644    -1.9749 H       
  84 H84            7.9839    12.9255    -1.1069 H       
  85 H85           10.5777    11.9025    -4.2164 H       
  86 H86           10.4548    13.5779    -3.6280 H       
  87 H87           11.3218    12.3577    -2.6648 H       
  88 H88            3.3916     0.9363     1.1577 H       
@<TRIPOS>BOND
   1    1    2 ar
   2    1    6 ar
   3    1   47 1
   4    2    3 ar
   5    2   25 1
   6    3    4 ar
   7    3   48 1
   8    4    5 ar
   9    5    6 ar
  10    5    7 1
  11    6   43 1
  12    7    8 1
  13    8    9 ar
  14    8   13 ar
  15    9   10 ar
  16    9   14 1
  17   10   11 ar
  18   10   49 1
  19   11   12 ar
  20   11   15 1
  21   12   13 ar
  22   12   40 1
  23   13   50 1
  24   15   16 am
  25   15   17 1
  26   16   18 2
  27   16   19 1
  28   17   27 1
  29   17   26 1
  30   17   51 1
  31   19   20 1
  32   19   24 1
  33   19   52 1
  34   20   21 1
  35   20   53 1
  36   20   54 1
  37   21   22 1
  38   21   55 1
  39   21   56 1
  40   22   23 1
  41   22   28 1
  42   22   57 1
  43   23   24 1
  44   23   58 1
  45   23   59 1
  46   24   60 1
  47   24   61 1
  48   25   33 1
  49   25   36 1
  50   26   30 1
  51   26   62 1
  52   26   63 1
  53   27   31 1
  54   27   64 1
  55   27   65 1
  56   28   66 1
  57   28   67 1
  58   28   68 1
  59   29   30 1
  60   29   69 1
  61   29   70 1
  62   29   71 1
  63   31   32 1
  64   32   72 1
  65   32   73 1
  66   32   74 1
  67   33   34 1
  68   33   75 1
  69   33   76 1
  70   34   35 1
  71   34   37 1
  72   34   77 1
  73   35   36 1
  74   35   78 1
  75   35   79 1
  76   36   80 1
  77   36   81 1
  78   37   38 1
  79   37   39 1
  80   38   82 1
  81   38   83 1
  82   38   84 1
  83   39   85 1
  84   39   86 1
  85   39   87 1
  86   40   41 2
  87   40   42 1
  88   42   88 1
  89   43   44 1
  90   43   45 1
  91   43   46 1

#	End of record

