#	Name: ASD01914082
#	Creating user name:	WinNT
#	Creation time:	15. 06. 2019 20:02

#	Modifying user name:	WinNT
#	Modification time:	15. 06. 2019 20:02

#	Program:	/corina/corina34_cracker 3.40 0067  02.08.2006

@<TRIPOS>MOLECULE
ASD01914082
  42   44    0    0    0
SMALL
NO_CHARGES


@<TRIPOS>ATOM
   1 C1            -0.0167     1.3810     0.0096 C.ar    
   2 C2             0.0021    -0.0041     0.0020 C.ar    
   3 C3             2.4001     0.0319    -0.0208 C.ar    
   4 C4             2.3774     1.4190    -0.0135 C.ar    
   5 O5             3.5874    -0.6291    -0.0366 O.3     
   6 C6             3.5349    -2.0571    -0.0433 C.3     
   7 C7             4.9362    -2.6112    -0.0608 C.ar    
   8 N8             5.1172    -3.9180    -0.0693 N.ar    
   9 C9             6.3202    -4.4535    -0.0847 C.ar    
  10 C10            7.4569    -3.6445    -0.0921 C.ar    
  11 C11            7.2971    -2.2534    -0.0834 C.ar    
  12 C12            6.0119    -1.7411    -0.0734 C.ar    
  13 C13            8.8074    -4.2458    -0.1084 C.2     
  14 N14            8.9482    -5.5862    -0.1162 N.am    
  15 O15            9.7908    -3.5314    -0.1147 O.2     
  16 C16            1.2093    -0.6795    -0.0132 C.ar    
  17 C17           10.2864    -6.1821    -0.1323 C.3     
  18 C18            1.1696     2.0900     0.0021 C.ar    
  19 C19           10.2144    -7.5809    -0.7480 C.3     
  20 C20           11.5187    -8.3736    -0.8550 C.3     
  21 C21           10.4628    -8.7737     0.1775 C.3     
  22 F22           -1.1586    -0.6954     0.0099 F       
  23 C23           10.8177    -6.2815     1.2990 C.3     
  24 F24            9.9597    -7.0825     2.0603 F       
  25 F25           12.0956    -6.8506     1.2836 F       
  26 F26           10.8835    -5.0025     1.8620 F       
  27 H27           -0.9596     1.9075     0.0170 H       
  28 H28            3.3037     1.9743    -0.0197 H       
  29 H29            3.0175    -2.4058     0.8504 H       
  30 H30            2.9987    -2.3968    -0.9294 H       
  31 H31            6.4279    -5.5281    -0.0913 H       
  32 H32            8.1549    -1.5972    -0.0887 H       
  33 H33            5.8501    -0.6733    -0.0665 H       
  34 H34            8.1634    -6.1563    -0.1111 H       
  35 H35            1.2246    -1.7594    -0.0188 H       
  36 H36           10.9549    -5.5580    -0.7254 H       
  37 H37            1.1526     3.1698     0.0078 H       
  38 H38            9.4823    -7.7063    -1.5457 H       
  39 H39           11.6445    -9.0208    -1.7230 H       
  40 H40           12.4280    -7.8985    -0.4868 H       
  41 H41           10.6776    -8.5618     1.2249 H       
  42 H42            9.8940    -9.6841    -0.0112 H       
@<TRIPOS>BOND
   1    1    2 ar
   2    1   18 ar
   3    1   27 1
   4    2   16 ar
   5    2   22 1
   6    3    4 ar
   7    3    5 1
   8    3   16 ar
   9    4   18 ar
  10    4   28 1
  11    5    6 1
  12    6    7 1
  13    6   29 1
  14    6   30 1
  15    7    8 ar
  16    7   12 ar
  17    8    9 ar
  18    9   10 ar
  19    9   31 1
  20   10   11 ar
  21   10   13 1
  22   11   12 ar
  23   11   32 1
  24   12   33 1
  25   13   14 am
  26   13   15 2
  27   14   17 1
  28   14   34 1
  29   16   35 1
  30   17   19 1
  31   17   23 1
  32   17   36 1
  33   18   37 1
  34   19   20 1
  35   19   21 1
  36   19   38 1
  37   20   21 1
  38   20   39 1
  39   20   40 1
  40   21   41 1
  41   21   42 1
  42   23   24 1
  43   23   25 1
  44   23   26 1

#	End of record

