#	Name: ASD03730356
#	Creating user name:	WinNT
#	Creation time:	15. 06. 2019 20:44

#	Modifying user name:	WinNT
#	Modification time:	15. 06. 2019 20:44

#	Program:	/corina/corina34_cracker 3.40 0067  02.08.2006

@<TRIPOS>MOLECULE
ASD03730356
  69   74    0    0    0
SMALL
NO_CHARGES


@<TRIPOS>ATOM
   1 C1            -0.2703     1.6913    -0.0527 C.2     
   2 C2            -0.4046     0.2270     0.1003 C.ar    
   3 C3             0.7221    -0.5579     0.3519 C.ar    
   4 C4             0.5897    -1.9235     0.4940 C.ar    
   5 C5            -0.6564    -2.5158     0.3873 C.ar    
   6 C6            -1.7769    -1.7438     0.1381 C.ar    
   7 C7            -1.6592    -0.3760    -0.0005 C.ar    
   8 O8             0.4287     2.3212     0.7168 O.2     
   9 N9            -0.9184     2.3271    -1.0488 N.am    
  10 C10            2.0800     0.0853     0.4675 C.3     
  11 O11            2.5445    -6.9124    -1.1157 O.3     
  12 C12            3.2409    -8.1723    -1.1449 C.3     
  13 O13            4.5982    -7.8060    -1.4557 O.3     
  14 C14            4.7499    -6.5325    -0.9866 C.ar    
  15 C15            3.4868    -5.9833    -0.7787 C.ar    
  16 C16            5.8822    -5.7857    -0.7148 C.ar    
  17 C17            5.7700    -4.4842    -0.2352 C.ar    
  18 C18            4.5028    -3.9435    -0.0393 C.ar    
  19 C19            3.3719    -4.6877    -0.3036 C.ar    
  20 O20            6.7451    -3.5943     0.1079 O.3     
  21 C21            4.7084    -2.5348     0.4498 C.3     
  22 C22            6.1871    -2.2665     0.1387 C.3     
  23 N23            3.0885    -0.9458     0.7243 N.am    
  24 C24            3.8041    -1.5555    -0.2417 C.2     
  25 C25            4.4088    -2.3888     1.9122 C.ar    
  26 C26            4.8963    -2.9950     3.0484 C.ar    
  27 C27            4.4065    -2.6341     4.2910 C.ar    
  28 C28            3.4258    -1.6637     4.3889 C.ar    
  29 C29            2.9336    -1.0543     3.2537 C.ar    
  30 C30            3.4211    -1.4110     1.9988 C.ar    
  31 O31            3.7321    -1.3527    -1.4353 O.2     
  32 C32           -1.6645     1.5562    -2.0465 C.3     
  33 C33           -0.8769     3.7890    -1.1339 C.3     
  34 C34            0.3204     4.2166    -1.9851 C.3     
  35 C35            0.3638     5.7434    -2.0739 C.3     
  36 N36            1.5134     6.1538    -2.8912 N.3     
  37 C37            1.3462     5.7272    -4.2869 C.3     
  38 C38            1.7284     7.6045    -2.8064 C.3     
  39 H39            1.4606    -2.5319     0.6887 H       
  40 H40           -0.7544    -3.5856     0.4987 H       
  41 H41           -2.7465    -2.2122     0.0559 H       
  42 H42           -2.5353     0.2261    -0.1910 H       
  43 H43            2.3175     0.6023    -0.4623 H       
  44 H44            2.0743     0.8008     1.2897 H       
  45 H45            3.1893    -8.6611    -0.1720 H       
  46 H46            2.8313    -8.8184    -1.9214 H       
  47 H47            6.8597    -6.2155    -0.8760 H       
  48 H48            2.3944    -4.2587    -0.1398 H       
  49 H49            6.6470    -1.6716     0.9278 H       
  50 H50            6.2966    -1.7780    -0.8296 H       
  51 H51            5.6620    -3.7526     2.9696 H       
  52 H52            4.7893    -3.1087     5.1824 H       
  53 H53            3.0434    -1.3821     5.3589 H       
  54 H54            2.1674    -0.2978     3.3382 H       
  55 H55           -2.6650     1.3453    -1.6689 H       
  56 H56           -1.7382     2.1315    -2.9694 H       
  57 H57           -1.1453     0.6183    -2.2435 H       
  58 H58           -1.7967     4.1526    -1.5920 H       
  59 H59           -0.7791     4.2086    -0.1326 H       
  60 H60            1.2402     3.8530    -1.5270 H       
  61 H61            0.2227     3.7970    -2.9864 H       
  62 H62           -0.5560     6.1069    -2.5320 H       
  63 H63            0.4616     6.1629    -1.0727 H       
  64 H64            0.4445     6.1797    -4.6996 H       
  65 H65            2.2111     6.0438    -4.8698 H       
  66 H66            1.2588     4.6414    -4.3270 H       
  67 H67            1.9189     7.8836    -1.7700 H       
  68 H68            2.5853     7.8814    -3.4206 H       
  69 H69            0.8406     8.1251    -3.1655 H       
@<TRIPOS>BOND
   1    1    2 1
   2    1    8 2
   3    1    9 am
   4    2    3 ar
   5    2    7 ar
   6    3    4 ar
   7    3   10 1
   8    4    5 ar
   9    4   39 1
  10    5    6 ar
  11    5   40 1
  12    6    7 ar
  13    6   41 1
  14    7   42 1
  15    9   32 1
  16    9   33 1
  17   10   23 1
  18   10   43 1
  19   10   44 1
  20   11   12 1
  21   11   15 1
  22   12   13 1
  23   12   45 1
  24   12   46 1
  25   13   14 1
  26   14   15 ar
  27   14   16 ar
  28   15   19 ar
  29   16   17 ar
  30   16   47 1
  31   17   18 ar
  32   17   20 1
  33   18   19 ar
  34   18   21 1
  35   19   48 1
  36   20   22 1
  37   21   22 1
  38   21   24 1
  39   21   25 1
  40   22   49 1
  41   22   50 1
  42   23   24 am
  43   23   30 1
  44   24   31 2
  45   25   26 ar
  46   25   30 ar
  47   26   27 ar
  48   26   51 1
  49   27   28 ar
  50   27   52 1
  51   28   29 ar
  52   28   53 1
  53   29   30 ar
  54   29   54 1
  55   32   55 1
  56   32   56 1
  57   32   57 1
  58   33   34 1
  59   33   58 1
  60   33   59 1
  61   34   35 1
  62   34   60 1
  63   34   61 1
  64   35   36 1
  65   35   62 1
  66   35   63 1
  67   36   37 1
  68   36   38 1
  69   37   64 1
  70   37   65 1
  71   37   66 1
  72   38   67 1
  73   38   68 1
  74   38   69 1

#	End of record

