#	Name: ASD04010003
#	Creating user name:	WinNT
#	Creation time:	15. 06. 2019 20:48

#	Modifying user name:	WinNT
#	Modification time:	15. 06. 2019 20:48

#	Program:	/corina/corina34_cracker 3.40 0067  02.08.2006

@<TRIPOS>MOLECULE
ASD04010003
  31   33    0    0    0
SMALL
NO_CHARGES


@<TRIPOS>ATOM
   1 Cl1            5.2011     2.3919     0.3717 Cl      
   2 C2             0.2558     1.5416    -0.7493 C.2     
   3 C3             0.2317     0.0734    -0.7357 C.2     
   4 O4             1.2480    -0.5490    -0.4949 O.2     
   5 C5             1.3689     2.3588    -0.5051 C.2     
   6 O6            -0.9173    -0.5844    -0.9903 O.3     
   7 N7             0.9383     3.6456    -0.6209 N.am    
   8 C8             1.7848     4.6858    -0.4412 C.2     
   9 O9             1.4048     5.8282    -0.5431 O.2     
  10 C10            3.2277     4.3634    -0.1066 C.3     
  11 C11            3.5644     5.0261     1.2308 C.3     
  12 C12            3.5343     6.5243     1.0707 C.ar    
  13 C13            2.4026     7.2347     1.4249 C.ar    
  14 C14            2.3751     8.6089     1.2780 C.ar    
  15 C15            3.4794     9.2728     0.7773 C.ar    
  16 C16            4.6114     8.5625     0.4240 C.ar    
  17 C17            4.6405     7.1887     0.5749 C.ar    
  18 C18            3.5825     2.8937    -0.0056 C.2     
  19 N19            2.6470     2.0221    -0.2080 N.2     
  20 N20           -0.4281     3.6291    -0.9339 N.2     
  21 C21           -0.8366     2.3962    -1.0170 C.2     
  22 H22           -0.8838    -1.5506    -0.9700 H       
  23 H23            3.8608     4.8119    -0.8722 H       
  24 H24            2.8315     4.7260     1.9797 H       
  25 H25            4.5589     4.7147     1.5504 H       
  26 H26            1.5399     6.7160     1.8160 H       
  27 H27            1.4906     9.1639     1.5541 H       
  28 H28            3.4576    10.3464     0.6619 H       
  29 H29            5.4740     9.0812     0.0325 H       
  30 H30            5.5263     6.6342     0.3024 H       
  31 H31           -1.8428     2.0797    -1.2487 H       
@<TRIPOS>BOND
   1    1   18 1
   2    2    3 1
   3    2    5 2
   4    2   21 1
   5    3    4 2
   6    3    6 1
   7    5    7 1
   8    5   19 1
   9    6   22 1
  10    7    8 am
  11    7   20 1
  12    8    9 2
  13    8   10 1
  14   10   11 1
  15   10   18 1
  16   10   23 1
  17   11   12 1
  18   11   24 1
  19   11   25 1
  20   12   13 ar
  21   12   17 ar
  22   13   14 ar
  23   13   26 1
  24   14   15 ar
  25   14   27 1
  26   15   16 ar
  27   15   28 1
  28   16   17 ar
  29   16   29 1
  30   17   30 1
  31   18   19 2
  32   20   21 2
  33   21   31 1

#	End of record

