#	Name: ASD00171050
#	Creating user name:	WinNT
#	Creation time:	15. 06. 2019 18:32

#	Modifying user name:	WinNT
#	Modification time:	15. 06. 2019 18:32

#	Program:	/corina/corina34_cracker 3.40 0067  02.08.2006

@<TRIPOS>MOLECULE
ASD00171050
  55   58    0    0    0
SMALL
NO_CHARGES


@<TRIPOS>ATOM
   1 C1            -0.0925     1.5267     0.0077 C.ar    
   2 C2            -0.1190     0.1362     0.0778 C.ar    
   3 C3            -1.3118    -0.5285     0.1032 C.ar    
   4 C4            -2.5145     0.1872     0.0582 C.ar    
   5 C5            -2.4907     1.5865    -0.0124 C.ar    
   6 C6            -1.2848     2.2493    -0.0317 C.ar    
   7 Cl7           -1.2475     3.9827    -0.1185 Cl      
   8 C8            -3.7975    -0.5269     0.0844 C.2     
   9 C9            -4.9570     0.1653     0.0410 C.2     
  10 C10           -6.2338    -0.5454     0.0671 C.2     
  11 N11           -7.3887     0.1462     0.1332 N.am    
  12 O12           -6.2542    -1.7620     0.0291 O.2     
  13 C13           -7.3778     1.6059     0.3032 C.3     
  14 C14           -8.1877     2.2380    -0.8355 C.3     
  15 N15           -9.4806     1.5459    -0.9326 N.am    
  16 C16           -9.4915     0.0861    -1.1026 C.3     
  17 C17           -8.6815    -0.5453     0.0305 C.3     
  18 S18            1.4511     2.3757    -0.0240 S.3     
  19 C19            1.6381     2.7947    -1.7252 C.ar    
  20 C20          -10.6355     2.2374    -0.8665 C.2     
  21 C21          -11.9524     1.5050    -0.8492 C.3     
  22 O22          -10.6149     3.4492    -0.8209 O.2     
  23 C23            0.6213     2.5231    -2.6248 C.ar    
  24 C24            0.7599     2.8501    -3.9661 C.ar    
  25 C25            1.9018     3.4456    -4.4224 C.ar    
  26 C26            2.9430     3.7302    -3.5335 C.ar    
  27 C27            2.8115     3.4084    -2.1728 C.ar    
  28 C28            4.2650     4.3438    -3.6787 C.2     
  29 C29            4.8299     4.3524    -2.4607 C.2     
  30 N30            3.9758     3.7982    -1.5476 N.pl3   
  31 C31            4.2573     3.6413    -0.1185 C.3     
  32 H32            0.8070    -0.4186     0.1119 H       
  33 H33           -1.3274    -1.6070     0.1576 H       
  34 H34           -3.4156     2.1431    -0.0476 H       
  35 H35           -3.8142    -1.6055     0.1385 H       
  36 H36           -4.9402     1.2438    -0.0131 H       
  37 H37           -7.8285     1.8661     1.2609 H       
  38 H38           -6.3512     1.9706     0.2681 H       
  39 H39           -8.3533     3.2944    -0.6241 H       
  40 H40           -7.6441     2.1310    -1.7742 H       
  41 H41          -10.5181    -0.2786    -1.0675 H       
  42 H42           -9.0408    -0.1740    -2.0603 H       
  43 H43           -8.5167    -1.6016    -0.1821 H       
  44 H44           -9.2229    -0.4389     0.9706 H       
  45 H45          -11.7773     0.4392    -0.9957 H       
  46 H46          -12.4440     1.6639     0.1106 H       
  47 H47          -12.5884     1.8821    -1.6501 H       
  48 H48           -0.2873     2.0524    -2.2796 H       
  49 H49           -0.0420     2.6315    -4.6557 H       
  50 H50            2.0002     3.6959    -5.4684 H       
  51 H51            4.7027     4.7180    -4.5924 H       
  52 H52            5.8118     4.7414    -2.2351 H       
  53 H53            3.9208     4.5287     0.4176 H       
  54 H54            3.7309     2.7658     0.2616 H       
  55 H55            5.3296     3.5128     0.0286 H       
@<TRIPOS>BOND
   1    1    2 ar
   2    1   18 1
   3    1    6 ar
   4    2    3 ar
   5    2   32 1
   6    3    4 ar
   7    3   33 1
   8    4    5 ar
   9    4    8 1
  10    5    6 ar
  11    5   34 1
  12    6    7 1
  13    8    9 2
  14    8   35 1
  15    9   10 1
  16    9   36 1
  17   10   11 am
  18   10   12 2
  19   11   13 1
  20   11   17 1
  21   13   14 1
  22   13   37 1
  23   13   38 1
  24   14   15 1
  25   14   39 1
  26   14   40 1
  27   15   16 1
  28   15   20 am
  29   16   17 1
  30   16   41 1
  31   16   42 1
  32   17   43 1
  33   17   44 1
  34   18   19 1
  35   19   23 ar
  36   19   27 ar
  37   20   21 1
  38   20   22 2
  39   21   45 1
  40   21   46 1
  41   21   47 1
  42   23   24 ar
  43   23   48 1
  44   24   25 ar
  45   24   49 1
  46   25   26 ar
  47   25   50 1
  48   26   27 ar
  49   26   28 1
  50   27   30 1
  51   28   29 2
  52   28   51 1
  53   29   30 1
  54   29   52 1
  55   30   31 1
  56   31   53 1
  57   31   54 1
  58   31   55 1

#	End of record

