#	Name: ASD01815595
#	Creating user name:	WinNT
#	Creation time:	15. 06. 2019 19:33

#	Modifying user name:	WinNT
#	Modification time:	15. 06. 2019 19:33

#	Program:	/corina/corina34_cracker 3.40 0067  02.08.2006

@<TRIPOS>MOLECULE
ASD01815595
  34   36    0    0    0
SMALL
NO_CHARGES


@<TRIPOS>ATOM
   1 C1            -0.2020     1.4940    -0.6588 C.ar    
   2 C2            -0.1389     0.1060    -0.6631 C.ar    
   3 C3            -1.2673    -0.6501    -0.4339 C.ar    
   4 C4            -2.4880    -0.0246    -0.1945 C.ar    
   5 C5            -2.5504     1.3793    -0.1899 C.ar    
   6 C6            -1.4002     2.1341    -0.4182 C.ar    
   7 N7            -3.6239    -0.7716     0.0352 N.pl3   
   8 C8            -4.8207    -0.2190     0.2694 C.2     
   9 C9            -5.0065     1.1486     0.2986 C.2     
  10 C10           -3.8500     2.0283     0.0650 C.2     
  11 O11           -3.9617     3.2417     0.0808 O.2     
  12 C12           -6.3369     1.7165     0.5587 C.2     
  13 O13           -7.2852     0.9804     0.7503 O.2     
  14 O14           -6.5056     3.0537     0.5847 O.3     
  15 C15           -3.5168    -2.2326     0.0221 C.3     
  16 C16           -3.3594    -2.7375     1.4333 C.ar    
  17 C17           -4.4751    -2.9216     2.2315 C.ar    
  18 C18           -4.3292    -3.3855     3.5281 C.ar    
  19 C19           -3.0702    -3.6646     4.0252 C.ar    
  20 C20           -1.9554    -3.4807     3.2292 C.ar    
  21 C21           -2.0994    -3.0227     1.9303 C.ar    
  22 F22            0.9149     2.2194    -0.8857 F       
  23 F23           -1.0095    -2.8435     1.1523 F       
  24 F24           -5.7059    -2.6485     1.7460 F       
  25 H25            0.8049    -0.3853    -0.8485 H       
  26 H26           -1.2052    -1.7283    -0.4401 H       
  27 H27           -1.4487     3.2130    -0.4146 H       
  28 H28           -5.6692    -0.8648     0.4407 H       
  29 H29           -7.3989     3.3802     0.7597 H       
  30 H30           -4.4183    -2.6591    -0.4179 H       
  31 H31           -2.6495    -2.5281    -0.5683 H       
  32 H32           -5.1996    -3.5289     4.1512 H       
  33 H33           -2.9574    -4.0264     5.0365 H       
  34 H34           -0.9720    -3.6984     3.6189 H       
@<TRIPOS>BOND
   1    1    2 ar
   2    1   22 1
   3    1    6 ar
   4    2    3 ar
   5    2   25 1
   6    3    4 ar
   7    3   26 1
   8    4    5 ar
   9    4    7 1
  10    5    6 ar
  11    5   10 1
  12    6   27 1
  13    7    8 1
  14    7   15 1
  15    8    9 2
  16    8   28 1
  17    9   10 1
  18    9   12 1
  19   10   11 2
  20   12   13 2
  21   12   14 1
  22   14   29 1
  23   15   16 1
  24   15   30 1
  25   15   31 1
  26   16   17 ar
  27   16   21 ar
  28   17   18 ar
  29   17   24 1
  30   18   19 ar
  31   18   32 1
  32   19   20 ar
  33   19   33 1
  34   20   21 ar
  35   20   34 1
  36   21   23 1

#	End of record

