#	Name: ASD05130012
#	Creating user name:	WinNT
#	Creation time:	15. 06. 2019 20:56

#	Modifying user name:	WinNT
#	Modification time:	15. 06. 2019 20:56

#	Program:	/corina/corina34_cracker 3.40 0067  02.08.2006

@<TRIPOS>MOLECULE
ASD05130012
  67   71    0    0    0
SMALL
NO_CHARGES


@<TRIPOS>ATOM
   1 N1            -2.1222     1.3733    -0.0691 N.am    
   2 C2            -2.1228     0.0256    -0.0701 C.2     
   3 O3            -3.1757    -0.5819    -0.0516 O.2     
   4 N4            -0.9560    -0.6488    -0.0915 N.am    
   5 C5            -3.3904     2.1063    -0.0458 C.3     
   6 C6            -0.8533     2.1053    -0.0854 C.3     
   7 N7             1.3973    -4.8393    -0.1225 N.am    
   8 C8             1.3780    -6.1819    -0.0096 C.2     
   9 C9             0.1175    -6.8830     0.2466 C.2     
  10 C10           -1.0406    -6.1655     0.3712 C.2     
  11 C11           -0.9939    -4.7562     0.2490 C.ar    
  12 C12           -2.1546    -3.9820     0.3698 C.ar    
  13 N13           -2.0937    -2.6735     0.2530 N.ar    
  14 C14           -0.9519    -2.0358     0.0208 C.ar    
  15 C15            0.2440    -2.7248    -0.1125 C.ar    
  16 C16            0.2369    -4.1108     0.0015 C.ar    
  17 O17            2.4126    -6.8151    -0.1215 O.2     
  18 C18            2.6651    -4.1494    -0.3732 C.3     
  19 C19            2.8886    -4.0255    -1.8817 C.3     
  20 C20            0.0970    -8.3595     0.3696 C.ar    
  21 C21           -0.0397    -8.9547     1.6237 C.ar    
  22 C22           -0.0592   -10.3301     1.7369 C.ar    
  23 C23            0.0571   -11.1228     0.6083 C.ar    
  24 C24            0.1938   -10.5370    -0.6464 C.ar    
  25 C25            0.2084    -9.1568    -0.7681 C.ar    
  26 C26           -0.1656    -8.0956     2.8555 C.3     
  27 F27            0.0383   -12.4686     0.7252 F       
  28 N28            0.3113   -11.3422    -1.7865 N.am    
  29 C29           -0.2326   -10.9420    -2.9530 C.2     
  30 O30           -0.7573    -9.8481    -3.0357 O.2     
  31 N31           -0.1949   -11.7543    -4.0278 N.am    
  32 C32           -1.0748   -11.4080    -7.5985 C.ar    
  33 C33           -0.5356   -12.0770    -6.4961 C.ar    
  34 C34           -0.6624   -11.2954    -5.2733 C.2     
  35 C35           -1.2513   -10.1216    -5.4250 C.2     
  36 S36           -1.7151    -9.8495    -7.0934 S.3     
  37 C37            0.0338   -13.3536    -6.6863 C.ar    
  38 C38            0.0564   -13.9221    -7.9231 C.ar    
  39 C39           -0.4793   -13.2556    -9.0166 C.ar    
  40 C40           -1.0456   -12.0126    -8.8592 C.ar    
  41 H41           -0.1192    -0.1673    -0.1853 H       
  42 H42           -3.9460     1.8426     0.8541 H       
  43 H43           -3.1908     3.1779    -0.0487 H       
  44 H44           -3.9780     1.8439    -0.9255 H       
  45 H45           -0.5521     2.2876    -1.1170 H       
  46 H46           -0.9764     3.0574     0.4308 H       
  47 H47           -0.0872     1.5156     0.4180 H       
  48 H48           -1.9779    -6.6677     0.5598 H       
  49 H49           -3.1038    -4.4615     0.5584 H       
  50 H50            1.1653    -2.1941    -0.3019 H       
  51 H51            2.6319    -3.1550     0.0720 H       
  52 H52            3.4823    -4.7187     0.0696 H       
  53 H53            2.9218    -5.0199    -2.3270 H       
  54 H54            2.0714    -3.4562    -2.3246 H       
  55 H55            3.8319    -3.5122    -2.0683 H       
  56 H56           -0.1651   -10.7890     2.7088 H       
  57 H57            0.3099    -8.7001    -1.7415 H       
  58 H58           -1.2179    -7.8827     3.0439 H       
  59 H59            0.2572    -8.6227     3.7108 H       
  60 H60            0.3727    -7.1602     2.7027 H       
  61 H61            0.7840   -12.1877    -1.7366 H       
  62 H62            0.1544   -12.6553    -3.9429 H       
  63 H63           -1.4250    -9.4196    -4.6229 H       
  64 H64            0.4550   -13.8836    -5.8448 H       
  65 H65            0.4954   -14.9000    -8.0547 H       
  66 H66           -0.4552   -13.7166    -9.9930 H       
  67 H67           -1.4618   -11.4984    -9.7129 H       
@<TRIPOS>BOND
   1    1    2 am
   2    1    5 1
   3    1    6 1
   4    2    3 2
   5    2    4 am
   6    4   14 1
   7    4   41 1
   8    5   42 1
   9    5   43 1
  10    5   44 1
  11    6   45 1
  12    6   46 1
  13    6   47 1
  14    7    8 am
  15    7   16 1
  16    7   18 1
  17    8    9 1
  18    8   17 2
  19    9   10 2
  20    9   20 1
  21   10   11 1
  22   10   48 1
  23   11   12 ar
  24   11   16 ar
  25   12   13 ar
  26   12   49 1
  27   13   14 ar
  28   14   15 ar
  29   15   16 ar
  30   15   50 1
  31   18   19 1
  32   18   51 1
  33   18   52 1
  34   19   53 1
  35   19   54 1
  36   19   55 1
  37   20   21 ar
  38   20   25 ar
  39   21   22 ar
  40   21   26 1
  41   22   23 ar
  42   22   56 1
  43   23   24 ar
  44   23   27 1
  45   24   25 ar
  46   24   28 1
  47   25   57 1
  48   26   58 1
  49   26   59 1
  50   26   60 1
  51   28   29 am
  52   28   61 1
  53   29   30 2
  54   29   31 am
  55   31   34 1
  56   31   62 1
  57   32   33 ar
  58   32   36 1
  59   32   40 ar
  60   33   34 1
  61   33   37 ar
  62   34   35 2
  63   35   36 1
  64   35   63 1
  65   37   38 ar
  66   37   64 1
  67   38   39 ar
  68   38   65 1
  69   39   40 ar
  70   39   66 1
  71   40   67 1

#	End of record

