#	Name: ASD03091974
#	Creating user name:	WinNT
#	Creation time:	15. 06. 2019 20:31

#	Modifying user name:	WinNT
#	Modification time:	15. 06. 2019 20:31

#	Program:	/corina/corina34_cracker 3.40 0067  02.08.2006

@<TRIPOS>MOLECULE
ASD03091974
  49   52    0    0    0
SMALL
NO_CHARGES


@<TRIPOS>ATOM
   1 C1            -0.0170     1.3989     0.0097 C.ar    
   2 C2            -1.2292     2.0674     0.0172 C.ar    
   3 C3            -2.4097     1.3492     0.0075 C.ar    
   4 C4            -2.3924    -0.0361    -0.0097 C.ar    
   5 C5            -1.1928    -0.7181    -0.0124 C.ar    
   6 C6             0.0021    -0.0041     0.0020 C.ar    
   7 O7             1.1598     2.0716     0.0021 O.3     
   8 C8             2.2743     1.4627     0.6521 C.3     
   9 N9             2.4122     0.0612     0.2540 N.am    
  10 C10            1.3112    -0.6873     0.0165 C.2     
  11 C11           -3.6902    -0.8019    -0.0249 C.3     
  12 C12           -4.1796    -0.9329    -1.4442 C.ar    
  13 C13           -3.7998    -2.0204    -2.2181 C.ar    
  14 O14            1.3965    -1.8842    -0.1793 O.2     
  15 C15           -3.7280     2.0794     0.0161 C.3     
  16 C16            3.7444    -0.5315     0.1122 C.3     
  17 C17           -5.0158     0.0267    -1.9854 C.ar    
  18 C18           -4.2705    -2.1040    -3.5168 C.ar    
  19 C19           -5.1063    -1.0973    -4.0006 C.ar    
  20 N20           -5.4509    -0.0760    -3.2243 N.ar    
  21 C21           -5.6020    -1.1690    -5.3421 C.1     
  22 C22            4.1793    -1.1346     1.4494 C.3     
  23 O23            3.3390    -2.2475     1.7767 O.3     
  24 C24            4.1224    -3.4494     1.8481 C.3     
  25 C25            5.5633    -2.9751     2.1635 C.3     
  26 C26            5.6272    -1.6592     1.3411 C.3     
  27 C27           -6.0084    -1.2277    -6.4420 C.1     
  28 H28           -1.2522     3.1471     0.0309 H       
  29 H29           -1.1810    -1.7980    -0.0257 H       
  30 H30            3.1831     2.0019     0.3847 H       
  31 H31            2.1321     1.5159     1.7315 H       
  32 H32           -3.5317    -1.7940     0.3978 H       
  33 H33           -4.4336    -0.2689     0.5679 H       
  34 H34           -3.1509    -2.7844    -1.8160 H       
  35 H35           -4.0453     2.2685    -1.0094 H       
  36 H36           -4.4773     1.4705     0.5219 H       
  37 H37           -3.6148     3.0274     0.5421 H       
  38 H38            3.7153    -1.3134    -0.6467 H       
  39 H39            4.4549     0.2390    -0.1871 H       
  40 H40           -5.3164     0.8716    -1.3837 H       
  41 H41           -3.9945    -2.9366    -4.1469 H       
  42 H42            4.1156    -0.3800     2.2333 H       
  43 H43            3.7535    -4.0947     2.6454 H       
  44 H44            4.0975    -3.9745     0.8933 H       
  45 H45            5.6882    -2.7792     3.2285 H       
  46 H46            6.3005    -3.6957     1.8095 H       
  47 H47            5.8894    -1.8629     0.3029 H       
  48 H48            6.3292    -0.9556     1.7887 H       
  49 H49           -6.3719    -1.2803    -7.4257 H       
@<TRIPOS>BOND
   1    1    6 ar
   2    1    7 1
   3    1    2 ar
   4    2    3 ar
   5    2   28 1
   6    3    4 ar
   7    3   15 1
   8    4    5 ar
   9    4   11 1
  10    5    6 ar
  11    5   29 1
  12    6   10 1
  13    7    8 1
  14    8    9 1
  15    8   30 1
  16    8   31 1
  17    9   10 am
  18    9   16 1
  19   10   14 2
  20   11   12 1
  21   11   32 1
  22   11   33 1
  23   12   13 ar
  24   12   17 ar
  25   13   18 ar
  26   13   34 1
  27   15   35 1
  28   15   36 1
  29   15   37 1
  30   16   22 1
  31   16   38 1
  32   16   39 1
  33   17   20 ar
  34   17   40 1
  35   18   19 ar
  36   18   41 1
  37   19   20 ar
  38   19   21 1
  39   21   27 3
  40   22   23 1
  41   22   26 1
  42   22   42 1
  43   23   24 1
  44   24   25 1
  45   24   43 1
  46   24   44 1
  47   25   26 1
  48   25   45 1
  49   25   46 1
  50   26   47 1
  51   26   48 1
  52   27   49 1

#	End of record

