#	Name: ASD01530017
#	Creating user name:	WinNT
#	Creation time:	15. 06. 2019 19:22

#	Modifying user name:	WinNT
#	Modification time:	15. 06. 2019 19:22

#	Program:	/corina/corina34_cracker 3.40 0067  02.08.2006

@<TRIPOS>MOLECULE
ASD01530017
  31   32    0    0    0
SMALL
NO_CHARGES


@<TRIPOS>ATOM
   1 C1            -0.0166     1.3756     0.0096 C.ar    
   2 C2             0.0021    -0.0041     0.0020 C.ar    
   3 C3             1.2072    -0.6987    -0.0132 C.ar    
   4 C4             2.3990    -0.0395    -0.0210 C.ar    
   5 C5             2.4244     1.3655    -0.0137 C.ar    
   6 C6             3.6398     2.0719    -0.0210 C.ar    
   7 C7             3.6278     3.4329    -0.0131 C.ar    
   8 C8             2.4269     4.1394     0.0020 C.ar    
   9 C9             1.2311     3.4879     0.0099 C.ar    
  10 C10            1.2042     2.0850     0.0018 C.ar    
  11 S11           -1.5497     2.2441     0.0216 S.3     
  12 C12           -2.7760     0.9073     0.0202 C.3     
  13 C13           -4.1837     1.5066     0.0301 C.3     
  14 C14           -5.2180     0.3792     0.0289 C.3     
  15 C15           -6.6257     0.9784     0.0389 C.3     
  16 H16           -0.9293    -0.5508     0.0083 H       
  17 H17            1.1976    -1.7786    -0.0186 H       
  18 H18            3.3243    -0.5964    -0.0325 H       
  19 H19            4.5782     1.5375    -0.0323 H       
  20 H20            4.5629     3.9733    -0.0184 H       
  21 H21            2.4447     5.2192     0.0079 H       
  22 H22            0.3079     4.0483     0.0223 H       
  23 H23           -2.6472     0.2971    -0.8737 H       
  24 H24           -2.6387     0.2874     0.9062 H       
  25 H25           -4.3125     2.1169     0.9241 H       
  26 H26           -4.3209     2.1265    -0.8558 H       
  27 H27           -5.0892    -0.2311    -0.8650 H       
  28 H28           -5.0807    -0.2408     0.9149 H       
  29 H29           -6.7545     1.5887     0.9328 H       
  30 H30           -6.7629     1.5984    -0.8471 H       
  31 H31           -7.3625     0.1752     0.0380 H       
@<TRIPOS>BOND
   1    1    2 ar
   2    1   10 ar
   3    1   11 1
   4    2    3 ar
   5    2   16 1
   6    3    4 ar
   7    3   17 1
   8    4    5 ar
   9    4   18 1
  10    5    6 ar
  11    5   10 ar
  12    6    7 ar
  13    6   19 1
  14    7    8 ar
  15    7   20 1
  16    8    9 ar
  17    8   21 1
  18    9   10 ar
  19    9   22 1
  20   11   12 1
  21   12   13 1
  22   12   23 1
  23   12   24 1
  24   13   14 1
  25   13   25 1
  26   13   26 1
  27   14   15 1
  28   14   27 1
  29   14   28 1
  30   15   29 1
  31   15   30 1
  32   15   31 1

#	End of record

