#	Name: ASD03330639
#	Creating user name:	WinNT
#	Creation time:	15. 06. 2019 20:37

#	Modifying user name:	WinNT
#	Modification time:	15. 06. 2019 20:37

#	Program:	/corina/corina34_cracker 3.40 0067  02.08.2006

@<TRIPOS>MOLECULE
ASD03330639
  70   73    0    0    0
SMALL
NO_CHARGES


@<TRIPOS>ATOM
   1 C1            -0.3225     1.1668     0.8608 C.2     
   2 N2            -0.3509    -0.1663     1.0950 N.pl3   
   3 C3             0.9828     1.5547     0.9023 C.2     
   4 N4             1.7311     0.4561     1.1426 N.2     
   5 C5             0.9382    -0.5837     1.2540 C.2     
   6 C6             1.3700    -1.9756     1.5089 C.ar    
   7 C7             1.4879     2.9266     0.7174 C.2     
   8 O8             0.7104     3.8374     0.5048 O.2     
   9 C9             3.3136     4.5360     0.5999 C.3     
  10 N10            2.8114     3.1721     0.7838 N.am    
  11 C11            3.4847     4.8195    -0.8938 C.3     
  12 C12            2.1155     4.8025    -1.5763 C.3     
  13 C13            4.1311     6.1935    -1.0814 C.3     
  14 C14            4.3787     3.7458    -1.5175 C.3     
  15 C15            4.6435     4.6795     1.2940 C.2     
  16 N16            5.1789     5.9026     1.4784 N.am    
  17 O17            5.2320     3.6945     1.6867 O.2     
  18 C18            6.5042     6.0377     2.0879 C.3     
  19 C19           -1.5605    -0.9901     1.1738 C.3     
  20 C20           -2.4710    -0.6617    -0.0134 C.3     
  21 C21           -3.3825     0.5079     0.3444 C.3     
  22 N22           -2.7024     1.4505     1.2352 N.3     
  23 C23           -1.5206     2.0389     0.5879 C.3     
  24 C24           -3.6245     2.4962     1.6981 C.3     
  25 C25            2.6216    -2.4117     1.0733 C.ar    
  26 C26            3.0185    -3.7110     1.3141 C.ar    
  27 C27            2.1782    -4.5808     1.9860 C.ar    
  28 C28            0.9356    -4.1546     2.4201 C.ar    
  29 C29            0.5297    -2.8560     2.1909 C.ar    
  30 C30            2.6180    -5.9986     2.2456 C.3     
  31 C31            3.1339    -6.1612     3.6960 C.3     
  32 N32            1.4611    -6.9237     2.2280 N.3     
  33 N33            1.6846    -7.8902     3.1632 N.am    
  34 C34            2.6159    -7.5386     4.0690 C.2     
  35 O35            2.9775    -8.2046     5.0159 O.2     
  36 H36            2.6034     5.2451     1.0252 H       
  37 H37            3.4315     2.4457     0.9533 H       
  38 H38            1.4786     5.5674    -1.1320 H       
  39 H39            2.2374     5.0045    -2.6405 H       
  40 H40            1.6550     3.8237    -1.4427 H       
  41 H41            5.0906     6.2172    -0.5649 H       
  42 H42            4.2859     6.3802    -2.1441 H       
  43 H43            3.4773     6.9619    -0.6690 H       
  44 H44            3.9182     2.7670    -1.3839 H       
  45 H45            4.5007     3.9478    -2.5817 H       
  46 H46            5.3542     3.7579    -1.0313 H       
  47 H47            4.6867     6.6933     1.2076 H       
  48 H48            6.4906     5.6028     3.0873 H       
  49 H49            7.2406     5.5175     1.4754 H       
  50 H50            6.7675     7.0933     2.1546 H       
  51 H51           -1.2859    -2.0444     1.1416 H       
  52 H52           -2.0856    -0.7779     2.1051 H       
  53 H53           -1.8601    -0.3947    -0.8758 H       
  54 H54           -3.0784    -1.5336    -0.2565 H       
  55 H55           -3.6750     1.0261    -0.5689 H       
  56 H56           -4.2752     0.1272     0.8404 H       
  57 H57           -1.3441     3.0367     0.9897 H       
  58 H58           -1.6877     2.1024    -0.4873 H       
  59 H59           -4.4514     2.0374     2.2402 H       
  60 H60           -3.0938     3.1825     2.3579 H       
  61 H61           -4.0125     3.0444     0.8397 H       
  62 H62            3.2784    -1.7337     0.5485 H       
  63 H63            3.9870    -4.0499     0.9771 H       
  64 H64            0.2839    -4.8386     2.9434 H       
  65 H65           -0.4406    -2.5245     2.5303 H       
  66 H66            3.3757    -6.3075     1.5255 H       
  67 H67            4.2232    -6.1352     3.7255 H       
  68 H68            2.7086    -5.3974     4.3470 H       
  69 H69            0.6010    -6.4307     2.4159 H       
  70 H70            1.2209    -8.7421     3.1746 H       
@<TRIPOS>BOND
   1    1    2 1
   2    1    3 2
   3    1   23 1
   4    2   19 1
   5    2    5 1
   6    3    4 1
   7    3    7 1
   8    4    5 2
   9    5    6 1
  10    6   25 ar
  11    6   29 ar
  12    7    8 2
  13    7   10 am
  14    9   10 1
  15    9   11 1
  16    9   15 1
  17    9   36 1
  18   10   37 1
  19   11   12 1
  20   11   13 1
  21   11   14 1
  22   12   38 1
  23   12   39 1
  24   12   40 1
  25   13   41 1
  26   13   42 1
  27   13   43 1
  28   14   44 1
  29   14   45 1
  30   14   46 1
  31   15   16 am
  32   15   17 2
  33   16   18 1
  34   16   47 1
  35   18   48 1
  36   18   49 1
  37   18   50 1
  38   19   20 1
  39   19   51 1
  40   19   52 1
  41   20   21 1
  42   20   53 1
  43   20   54 1
  44   21   22 1
  45   21   55 1
  46   21   56 1
  47   22   23 1
  48   22   24 1
  49   23   57 1
  50   23   58 1
  51   24   59 1
  52   24   60 1
  53   24   61 1
  54   25   26 ar
  55   25   62 1
  56   26   27 ar
  57   26   63 1
  58   27   28 ar
  59   27   30 1
  60   28   29 ar
  61   28   64 1
  62   29   65 1
  63   30   31 1
  64   30   32 1
  65   30   66 1
  66   31   34 1
  67   31   67 1
  68   31   68 1
  69   32   33 1
  70   32   69 1
  71   33   34 am
  72   33   70 1
  73   34   35 2

#	End of record

