#	Name: ASD01900467
#	Creating user name:	WinNT
#	Creation time:	15. 06. 2019 19:52

#	Modifying user name:	WinNT
#	Modification time:	15. 06. 2019 19:52

#	Program:	/corina/corina34_cracker 3.40 0067  02.08.2006

@<TRIPOS>MOLECULE
ASD01900467
  43   46    0    0    0
SMALL
NO_CHARGES


@<TRIPOS>ATOM
   1 C1             0.2871     3.8240     1.8214 C.ar    
   2 C2             0.6317     4.9374     2.6112 C.ar    
   3 C3             1.9759     5.1757     2.8956 C.ar    
   4 C4             2.9163     4.3023     2.3859 C.ar    
   5 C5             2.5047     3.2238     1.6138 C.ar    
   6 N6             1.2341     3.0134     1.3551 N.ar    
   7 N7            -1.6104     4.8815     2.3696 N.2     
   8 N8            -0.5364     5.5737     2.9387 N.pl3   
   9 C9            -1.1724     3.8492     1.6989 C.2     
  10 N10           -1.9569     2.9287     0.9973 N.pl3   
  11 C11           -3.3339     3.1393     0.8665 C.ar    
  12 C12           -3.8411     4.4325     0.8542 C.ar    
  13 C13           -5.2010     4.6392     0.7245 C.ar    
  14 C14           -6.0600     3.5548     0.6071 C.ar    
  15 C15           -5.5539     2.2640     0.6198 C.ar    
  16 C16           -4.1938     2.0559     0.7432 C.ar    
  17 O17           -7.3987     3.7587     0.4799 O.3     
  18 C18           -8.2116     2.6062     0.2497 C.3     
  19 C19           -8.5337     1.9342     1.5859 C.3     
  20 C20           -9.4932     3.0221    -0.4253 C.ar    
  21 C21          -10.0823     2.1924    -1.3610 C.ar    
  22 C22          -11.2579     2.5739    -1.9802 C.ar    
  23 C23          -11.8446     3.7848    -1.6633 C.ar    
  24 C24          -11.2559     4.6140    -0.7270 C.ar    
  25 C25          -10.0827     4.2306    -0.1046 C.ar    
  26 Cl26          -5.8357     6.2549     0.7090 Cl      
  27 H27            2.2736     6.0211     3.4982 H       
  28 H28            3.9662     4.4573     2.5864 H       
  29 H29            3.2446     2.5442     1.2175 H       
  30 H30           -0.6075     6.3760     3.4792 H       
  31 H31           -1.5465     2.1441     0.6012 H       
  32 H32           -3.1728     5.2758     0.9463 H       
  33 H33           -6.2228     1.4211     0.5287 H       
  34 H34           -3.7996     1.0503     0.7482 H       
  35 H35           -7.6751     1.9051    -0.3896 H       
  36 H36           -9.1537     1.0551     1.4104 H       
  37 H37           -7.6067     1.6334     2.0741 H       
  38 H38           -9.0701     2.6353     2.2253 H       
  39 H39           -9.6239     1.2464    -1.6085 H       
  40 H40          -11.7178     1.9260    -2.7117 H       
  41 H41          -12.7627     4.0832    -2.1476 H       
  42 H42          -11.7141     5.5602    -0.4797 H       
  43 H43           -9.6247     4.8768     0.6297 H       
@<TRIPOS>BOND
   1    1    2 ar
   2    1    6 ar
   3    1    9 1
   4    2    3 ar
   5    2    8 1
   6    3    4 ar
   7    3   27 1
   8    4    5 ar
   9    4   28 1
  10    5    6 ar
  11    5   29 1
  12    7    8 1
  13    7    9 2
  14    8   30 1
  15    9   10 1
  16   10   11 1
  17   10   31 1
  18   11   12 ar
  19   11   16 ar
  20   12   13 ar
  21   12   32 1
  22   13   14 ar
  23   13   26 1
  24   14   15 ar
  25   14   17 1
  26   15   16 ar
  27   15   33 1
  28   16   34 1
  29   17   18 1
  30   18   19 1
  31   18   20 1
  32   18   35 1
  33   19   36 1
  34   19   37 1
  35   19   38 1
  36   20   21 ar
  37   20   25 ar
  38   21   22 ar
  39   21   39 1
  40   22   23 ar
  41   22   40 1
  42   23   24 ar
  43   23   41 1
  44   24   25 ar
  45   24   42 1
  46   25   43 1

#	End of record

