#	Name: ASD03240780
#	Creating user name:	WinNT
#	Creation time:	15. 06. 2019 20:35

#	Modifying user name:	WinNT
#	Modification time:	15. 06. 2019 20:35

#	Program:	/corina/corina34_cracker 3.40 0067  02.08.2006

@<TRIPOS>MOLECULE
ASD03240780
  81   87    0    0    0
SMALL
NO_CHARGES


@<TRIPOS>ATOM
   1 C1             0.2821     1.8735    -1.2214 C.2     
   2 C2             0.3578     0.4163    -1.5979 C.3     
   3 N3             1.4043     2.5440    -0.8938 N.am    
   4 C4             1.3456     3.9653    -0.5245 C.3     
   5 C5             1.9942     4.1407     0.8542 C.3     
   6 N6             3.2986     3.4635     0.8491 N.am    
   7 C7             3.3573     2.0422     0.4798 C.3     
   8 C8             2.7079     1.8654    -0.8934 C.3     
   9 C9             4.4208     4.1340     1.1767 C.2     
  10 O10            4.3735     5.3265     1.3929 O.2     
  11 N11            8.2701     3.0239     2.6036 N.3     
  12 C12            8.2181     3.6584     1.2804 C.3     
  13 C13            6.8877     4.3974     1.1195 C.3     
  14 C14            5.7345     3.4021     1.2746 C.3     
  15 C15            5.8397     2.7200     2.6414 C.3     
  16 C16            7.2005     2.0297     2.7582 C.3     
  17 C17            9.5877     2.4219     2.8474 C.3     
  18 C18            9.6883     2.0006     4.2908 C.ar    
  19 C19            9.2937     0.7288     4.6663 C.ar    
  20 C20            9.3838     0.3370     5.9862 C.ar    
  21 C21            9.8738     1.2261     6.9427 C.ar    
  22 C22           10.2700     2.5070     6.5579 C.ar    
  23 C23           10.1801     2.8852     5.2340 C.ar    
  24 C24            8.2125    -1.6335    11.9591 C.2     
  25 N25            9.2013    -1.2238    12.7732 N.2     
  26 C26           10.1516    -0.4241    12.3626 C.2     
  27 C27           10.1406     0.0388    10.9765 C.ar    
  28 C28            9.0999    -0.3944    10.1273 C.ar    
  29 N29            8.1397    -1.2389    10.6506 N.pl3   
  30 C30           11.1290     0.8941    10.4788 C.ar    
  31 C31           11.0409     1.2861     9.1468 C.ar    
  32 C32            9.9726     0.8121     8.3611 C.ar    
  33 N33            9.0547     0.0022     8.8676 N.ar    
  34 N34            7.0052    -1.8338    10.0855 N.2     
  35 C35            6.4083    -2.5593    11.0004 C.2     
  36 C36            7.1220    -2.4616    12.1883 C.2     
  37 C37           12.0586     2.1919     8.5620 C.ar    
  38 C38           12.4006     3.3747     9.2156 C.ar    
  39 C39           13.3489     4.2138     8.6668 C.ar    
  40 C40           13.9593     3.8832     7.4703 C.ar    
  41 C41           13.6236     2.7110     6.8170 C.ar    
  42 C42           12.6812     1.8612     7.3595 C.ar    
  43 C43            5.1500    -3.3636    10.7978 C.3     
  44 O44           -0.7881     2.4442    -1.2181 O.2     
  45 H45            0.7711    -0.1531    -0.7655 H       
  46 H46           -0.6419     0.0483    -1.8290 H       
  47 H47            0.9988     0.2996    -2.4718 H       
  48 H48            1.8877     4.5575    -1.2618 H       
  49 H49            0.3059     4.2900    -0.4836 H       
  50 H50            2.1338     5.2018     1.0605 H       
  51 H51            1.3551     3.6979     1.6181 H       
  52 H52            4.3970     1.7175     0.4389 H       
  53 H53            2.8153     1.4500     1.2171 H       
  54 H54            2.5677     0.8037    -1.0961 H       
  55 H55            3.3492     2.3047    -1.6576 H       
  56 H56            9.0409     4.3669     1.1847 H       
  57 H57            8.3050     2.8946     0.5077 H       
  58 H58            6.8062     5.1707     1.8834 H       
  59 H59            6.8428     4.8552     0.1313 H       
  60 H60            5.7928     2.6514     0.4864 H       
  61 H61            5.7417     3.4669     3.4293 H       
  62 H62            5.0462     1.9794     2.7406 H       
  63 H63            7.2922     1.2734     1.9786 H       
  64 H64            7.2843     1.5551     3.7359 H       
  65 H65            9.7134     1.5504     2.2049 H       
  66 H66           10.3669     3.1514     2.6267 H       
  67 H67            8.9141     0.0414     3.9248 H       
  68 H68            9.0752    -0.6560     6.2782 H       
  69 H69           10.6499     3.2000     7.2940 H       
  70 H70           10.4903     3.8752     4.9341 H       
  71 H71           10.9335    -0.1106    13.0385 H       
  72 H72           11.9351     1.2399    11.1089 H       
  73 H73            6.8740    -2.9445    13.1219 H       
  74 H74           11.9242     3.6341    10.1495 H       
  75 H75           13.6147     5.1304     9.1723 H       
  76 H76           14.7007     4.5430     7.0443 H       
  77 H77           14.1031     2.4582     5.8829 H       
  78 H78           12.4231     0.9441     6.8509 H       
  79 H79            5.4109    -4.3707    10.4727 H       
  80 H80            4.5975    -3.4163    11.7359 H       
  81 H81            4.5316    -2.8854    10.0382 H       
@<TRIPOS>BOND
   1    1    2 1
   2    1    3 am
   3    1   44 2
   4    2   45 1
   5    2   46 1
   6    2   47 1
   7    3    4 1
   8    3    8 1
   9    4    5 1
  10    4   48 1
  11    4   49 1
  12    5    6 1
  13    5   50 1
  14    5   51 1
  15    6    7 1
  16    6    9 am
  17    7    8 1
  18    7   52 1
  19    7   53 1
  20    8   54 1
  21    8   55 1
  22    9   10 2
  23    9   14 1
  24   11   12 1
  25   11   16 1
  26   11   17 1
  27   12   13 1
  28   12   56 1
  29   12   57 1
  30   13   14 1
  31   13   58 1
  32   13   59 1
  33   14   15 1
  34   14   60 1
  35   15   16 1
  36   15   61 1
  37   15   62 1
  38   16   63 1
  39   16   64 1
  40   17   18 1
  41   17   65 1
  42   17   66 1
  43   18   19 ar
  44   18   23 ar
  45   19   20 ar
  46   19   67 1
  47   20   21 ar
  48   20   68 1
  49   21   22 ar
  50   21   32 1
  51   22   23 ar
  52   22   69 1
  53   23   70 1
  54   24   25 1
  55   24   29 1
  56   24   36 2
  57   25   26 2
  58   26   27 1
  59   26   71 1
  60   27   28 ar
  61   27   30 ar
  62   28   29 1
  63   28   33 ar
  64   29   34 1
  65   30   31 ar
  66   30   72 1
  67   31   32 ar
  68   31   37 1
  69   32   33 ar
  70   34   35 2
  71   35   36 1
  72   35   43 1
  73   36   73 1
  74   37   38 ar
  75   37   42 ar
  76   38   39 ar
  77   38   74 1
  78   39   40 ar
  79   39   75 1
  80   40   41 ar
  81   40   76 1
  82   41   42 ar
  83   41   77 1
  84   42   78 1
  85   43   79 1
  86   43   80 1
  87   43   81 1

#	End of record

