#	Name: ASD01914111
#	Creating user name:	WinNT
#	Creation time:	15. 06. 2019 20:02

#	Modifying user name:	WinNT
#	Modification time:	15. 06. 2019 20:02

#	Program:	/corina/corina34_cracker 3.40 0067  02.08.2006

@<TRIPOS>MOLECULE
ASD01914111
  45   46    0    0    0
SMALL
NO_CHARGES


@<TRIPOS>ATOM
   1 C1            -0.0167     1.3810     0.0096 C.ar    
   2 C2             0.0021    -0.0041     0.0020 C.ar    
   3 C3             2.4001     0.0319    -0.0208 C.ar    
   4 C4             2.3774     1.4190    -0.0135 C.ar    
   5 O5             3.5874    -0.6291    -0.0366 O.3     
   6 C6             1.2093    -0.6795    -0.0132 C.ar    
   7 C7             1.1696     2.0900     0.0021 C.ar    
   8 F8            -1.1586    -0.6954     0.0099 F       
   9 C9             3.5349    -2.0571    -0.0433 C.3     
  10 C10            4.9362    -2.6112    -0.0608 C.ar    
  11 N11            5.1172    -3.9180    -0.0693 N.ar    
  12 C12            6.3202    -4.4535    -0.0847 C.ar    
  13 C13            7.4569    -3.6445    -0.0921 C.ar    
  14 C14            7.2971    -2.2534    -0.0834 C.ar    
  15 C15            6.0119    -1.7411    -0.0734 C.ar    
  16 C16            8.8074    -4.2458    -0.1084 C.2     
  17 N17            8.9482    -5.5862    -0.1162 N.am    
  18 C18           10.2864    -6.1821    -0.1323 C.3     
  19 O19            9.7908    -3.5314    -0.1147 O.2     
  20 C20           10.2265    -7.5867     0.4712 C.3     
  21 C21           10.7892    -6.2678    -1.5748 C.3     
  22 C22            9.6072    -7.5155     1.8685 C.3     
  23 O23            9.4275    -8.4293    -0.3616 O.3     
  24 C24           11.6415    -8.1605     0.5692 C.3     
  25 H25           -0.9596     1.9075     0.0170 H       
  26 H26            3.3037     1.9743    -0.0197 H       
  27 H27            1.2246    -1.7594    -0.0188 H       
  28 H28            1.1526     3.1698     0.0078 H       
  29 H29            3.0175    -2.4058     0.8504 H       
  30 H30            2.9987    -2.3968    -0.9294 H       
  31 H31            6.4279    -5.5281    -0.0913 H       
  32 H32            8.1549    -1.5972    -0.0887 H       
  33 H33            5.8501    -0.6733    -0.0665 H       
  34 H34            8.1634    -6.1563    -0.1111 H       
  35 H35           10.9666    -5.5636     0.4534 H       
  36 H36           10.8318    -5.2671    -2.0048 H       
  37 H37           11.7849    -6.7111    -1.5868 H       
  38 H38           10.1090    -6.8862    -2.1605 H       
  39 H39            8.5992    -7.1067     1.7987 H       
  40 H40            9.5646    -8.5162     2.2984 H       
  41 H41           10.2168    -6.8728     2.5037 H       
  42 H42            8.5156    -8.1257    -0.4688 H       
  43 H43           12.2510    -7.5178     1.2044 H       
  44 H44           11.5988    -9.1612     0.9991 H       
  45 H45           12.0827    -8.2112    -0.4263 H       
@<TRIPOS>BOND
   1    1    2 ar
   2    1    7 ar
   3    1   25 1
   4    2    6 ar
   5    2    8 1
   6    3    4 ar
   7    3    5 1
   8    3    6 ar
   9    4    7 ar
  10    4   26 1
  11    5    9 1
  12    6   27 1
  13    7   28 1
  14    9   10 1
  15    9   29 1
  16    9   30 1
  17   10   11 ar
  18   10   15 ar
  19   11   12 ar
  20   12   13 ar
  21   12   31 1
  22   13   14 ar
  23   13   16 1
  24   14   15 ar
  25   14   32 1
  26   15   33 1
  27   16   17 am
  28   16   19 2
  29   17   18 1
  30   17   34 1
  31   18   20 1
  32   18   21 1
  33   18   35 1
  34   20   23 1
  35   20   24 1
  36   20   22 1
  37   21   36 1
  38   21   37 1
  39   21   38 1
  40   22   39 1
  41   22   40 1
  42   22   41 1
  43   23   42 1
  44   24   43 1
  45   24   44 1
  46   24   45 1

#	End of record

