#	Name: ASD01913953
#	Creating user name:	WinNT
#	Creation time:	15. 06. 2019 20:02

#	Modifying user name:	WinNT
#	Modification time:	15. 06. 2019 20:02

#	Program:	/corina/corina34_cracker 3.40 0067  02.08.2006

@<TRIPOS>MOLECULE
ASD01913953
  38   41    0    0    0
SMALL
NO_CHARGES


@<TRIPOS>ATOM
   1 C1            -0.0706     1.2621    -0.9300 C.ar    
   2 C2            -0.0449    -0.0923    -0.6435 C.ar    
   3 C3             1.1654    -0.7367    -0.4549 C.ar    
   4 C4             2.3445    -0.0179    -0.5551 C.ar    
   5 C5             2.3250     1.3558    -0.8638 C.ar    
   6 C6             1.1034     1.9835    -1.0403 C.ar    
   7 C7             3.6720    -0.6182    -0.3256 C.2     
   8 C8             4.7660     0.2120    -0.1736 C.2     
   9 C9             4.6325     1.7063    -0.2303 C.3     
  10 O10            3.4827     2.0451    -1.0118 O.3     
  11 N11            4.1178    -1.8808    -0.2194 N.pl3   
  12 N12            5.3943    -1.8768    -0.0195 N.2     
  13 C13            5.8553    -0.6348     0.0192 C.2     
  14 C14            7.2593    -0.2256     0.2268 C.2     
  15 N15            8.2148    -1.1600     0.4008 N.am    
  16 C16            9.5563    -0.7779     0.5024 C.ar    
  17 C17            9.8957     0.4062     1.1433 C.ar    
  18 C18           11.2227     0.7809     1.2418 C.ar    
  19 C19           12.2116    -0.0229     0.7024 C.ar    
  20 C20           11.8757    -1.2026     0.0637 C.ar    
  21 C21           10.5523    -1.5850    -0.0328 C.ar    
  22 Cl22          11.6489     2.2612     2.0423 Cl      
  23 O23            7.5530     0.9541     0.2407 O.2     
  24 C24            3.2830    -3.0808    -0.3158 C.3     
  25 Cl25          -1.5306    -0.9819    -0.5202 Cl      
  26 H26           -1.0184     1.7596    -1.0734 H       
  27 H27            1.1899    -1.7930    -0.2308 H       
  28 H28            1.0677     3.0393    -1.2646 H       
  29 H29            4.5160     2.1003     0.7793 H       
  30 H30            5.5238     2.1346    -0.6890 H       
  31 H31            7.9721    -2.0975     0.4556 H       
  32 H32            9.1240     1.0337     1.5639 H       
  33 H33           13.2477     0.2717     0.7802 H       
  34 H34           12.6498    -1.8278    -0.3562 H       
  35 H35           10.2911    -2.5066    -0.5315 H       
  36 H36            3.1413    -3.3416    -1.3646 H       
  37 H37            3.7725    -3.9064     0.2009 H       
  38 H38            2.3142    -2.8874     0.1447 H       
@<TRIPOS>BOND
   1    1    2 ar
   2    1    6 ar
   3    1   26 1
   4    2    3 ar
   5    2   25 1
   6    3    4 ar
   7    3   27 1
   8    4    5 ar
   9    4    7 1
  10    5    6 ar
  11    5   10 1
  12    6   28 1
  13    7    8 2
  14    7   11 1
  15    8    9 1
  16    8   13 1
  17    9   10 1
  18    9   29 1
  19    9   30 1
  20   11   12 1
  21   11   24 1
  22   12   13 2
  23   13   14 1
  24   14   15 am
  25   14   23 2
  26   15   16 1
  27   15   31 1
  28   16   17 ar
  29   16   21 ar
  30   17   18 ar
  31   17   32 1
  32   18   19 ar
  33   18   22 1
  34   19   20 ar
  35   19   33 1
  36   20   21 ar
  37   20   34 1
  38   21   35 1
  39   24   36 1
  40   24   37 1
  41   24   38 1

#	End of record

