#	Name: ASD01190051
#	Creating user name:	WinNT
#	Creation time:	15. 06. 2019 19:07

#	Modifying user name:	WinNT
#	Modification time:	15. 06. 2019 19:07

#	Program:	/corina/corina34_cracker 3.40 0067  02.08.2006

@<TRIPOS>MOLECULE
ASD01190051
  45   48    0    0    0
SMALL
NO_CHARGES


@<TRIPOS>ATOM
   1 C1            -0.0187     1.5258     0.0104 C.3     
   2 C2             0.5213     0.1130    -0.2205 C.3     
   3 N3             3.1196     3.1618     1.0261 N.pl3   
   4 C4             2.3875     2.0742     0.6346 C.2     
   5 C5             1.1069     2.4291     0.4440 C.2     
   6 C6             1.0113     3.8611     0.7375 C.ar    
   7 C7            -0.0334     4.7875     0.7214 C.ar    
   8 C8             0.2093     6.0894     1.0573 C.ar    
   9 C9             1.4868     6.4991     1.4146 C.ar    
  10 C10            2.5319     5.6021     1.4367 C.ar    
  11 C11            2.3074     4.2713     1.0988 C.ar    
  12 C12            4.5529     3.1468     1.3288 C.3     
  13 N13           -2.4963     3.4606    -4.6482 N.am    
  14 N14           -3.8264     3.4255    -4.2169 N.2     
  15 C15           -3.8884     2.9832    -2.9934 C.2     
  16 C16           -2.5268     2.6965    -2.5536 C.ar    
  17 C17           -1.9705     2.2104    -1.3650 C.ar    
  18 C18           -0.6188     2.0495    -1.2688 C.ar    
  19 C19            0.2096     2.3645    -2.3392 C.ar    
  20 C20           -0.3096     2.8412    -3.5092 C.ar    
  21 C21           -1.6856     3.0155    -3.6369 C.ar    
  22 S22           -1.9839     3.9543    -6.1435 S.o2    
  23 O23           -0.7556     3.2666    -6.3377 O.2     
  24 O24           -3.0987     3.7166    -6.9920 O.2     
  25 C25           -1.6938     5.7352    -5.9575 C.3     
  26 F26            1.0785    -0.3732     0.9671 F       
  27 F27           -0.5236    -0.7256    -0.6230 F       
  28 F28            1.5029     0.1460    -1.2168 F       
  29 O29           -1.0213     1.4920     1.0281 O.3     
  30 H30            2.7815     1.0779     0.4986 H       
  31 H31           -1.0296     4.4760     0.4441 H       
  32 H32           -0.5990     6.8055     1.0443 H       
  33 H33            1.6629     7.5317     1.6776 H       
  34 H34            3.5221     5.9306     1.7157 H       
  35 H35            5.1183     3.3561     0.4207 H       
  36 H36            4.7740     3.9072     2.0778 H       
  37 H37            4.8328     2.1660     1.7131 H       
  38 H38           -4.7869     2.8526    -2.4086 H       
  39 H39           -2.6074     1.9645    -0.5282 H       
  40 H40            1.2771     2.2310    -2.2447 H       
  41 H41            0.3453     3.0829    -4.3332 H       
  42 H42           -0.9358     5.9019    -5.1921 H       
  43 H43           -1.3497     6.1483    -6.9057 H       
  44 H44           -2.6216     6.2256    -5.6629 H       
  45 H45           -1.4088     2.3553     1.2272 H       
@<TRIPOS>BOND
   1    1    2 1
   2    1    5 1
   3    1   18 1
   4    1   29 1
   5    2   26 1
   6    2   27 1
   7    2   28 1
   8    3    4 1
   9    3   11 1
  10    3   12 1
  11    4    5 2
  12    4   30 1
  13    5    6 1
  14    6    7 ar
  15    6   11 ar
  16    7    8 ar
  17    7   31 1
  18    8    9 ar
  19    8   32 1
  20    9   10 ar
  21    9   33 1
  22   10   11 ar
  23   10   34 1
  24   12   35 1
  25   12   36 1
  26   12   37 1
  27   13   14 1
  28   13   21 1
  29   13   22 am
  30   14   15 2
  31   15   16 1
  32   15   38 1
  33   16   17 ar
  34   16   21 ar
  35   17   18 ar
  36   17   39 1
  37   18   19 ar
  38   19   20 ar
  39   19   40 1
  40   20   21 ar
  41   20   41 1
  42   22   23 2
  43   22   24 2
  44   22   25 1
  45   25   42 1
  46   25   43 1
  47   25   44 1
  48   29   45 1

#	End of record

