#	Name: ASD01811812
#	Creating user name:	WinNT
#	Creation time:	15. 06. 2019 19:27

#	Modifying user name:	WinNT
#	Modification time:	15. 06. 2019 19:27

#	Program:	/corina/corina34_cracker 3.40 0067  02.08.2006

@<TRIPOS>MOLECULE
ASD01811812
  58   62    0    0    0
SMALL
NO_CHARGES


@<TRIPOS>ATOM
   1 C1            -0.0167     1.3826     0.0096 C.ar    
   2 C2             0.0021    -0.0041     0.0020 C.ar    
   3 C3            -1.1845    -0.7153     0.0095 C.ar    
   4 C4            -2.3944    -0.0527     0.0247 C.ar    
   5 C5            -2.4229     1.3432     0.0329 C.ar    
   6 C6            -1.2204     2.0532     0.0305 C.ar    
   7 F7             1.1434     2.0750     0.0023 F       
   8 C8             1.3182    -0.7379    -0.0150 C.3     
   9 C9            -1.1553    -2.2220     0.0006 C.3     
  10 C10           -1.0079    -2.7299     1.4118 C.ar    
  11 C11           -2.1340    -2.9860     2.1731 C.ar    
  12 C12           -2.0048    -3.4513     3.4661 C.ar    
  13 C13           -0.7372    -3.6634     4.0040 C.ar    
  14 C14            0.3937    -3.4042     3.2326 C.ar    
  15 C15            0.2528    -2.9437     1.9391 C.ar    
  16 C16           -0.5920    -4.1631     5.3940 C.2     
  17 C17            0.6223    -4.4201     6.0596 C.2     
  18 C18            0.3283    -4.8596     7.3026 C.2     
  19 N19           -1.0160    -4.8836     7.4291 N.pl3   
  20 N20           -1.5753    -4.4390     6.2243 N.2     
  21 C21           -1.7600    -5.2982     8.6210 C.3     
  22 C22           -3.5336     2.3145     0.0494 C.2     
  23 N23           -3.0546     3.5704     0.0524 N.am    
  24 C24           -1.5883     3.5159     0.0415 C.3     
  25 O25           -4.7131     2.0208     0.0586 O.2     
  26 C26           -3.8630     4.7921     0.0675 C.3     
  27 C27           -4.7350     4.8133     1.3267 C.3     
  28 C28           -5.6313     6.0550     1.2929 C.3     
  29 C29           -6.4650     6.0381     0.0090 C.3     
  30 O30           -5.5938     5.9872    -1.1226 O.3     
  31 C31           -4.7650     4.8240    -1.1690 C.3     
  32 O32           -3.9001     4.8578     2.4856 O.3     
  33 H33           -3.3178    -0.6127     0.0298 H       
  34 H34            1.6458    -0.9203     1.0085 H       
  35 H35            1.1970    -1.6894    -0.5328 H       
  36 H36            2.0638    -0.1348    -0.5330 H       
  37 H37           -2.0836    -2.6009    -0.4268 H       
  38 H38           -0.3124    -2.5655    -0.5990 H       
  39 H39           -3.1161    -2.8212     1.7551 H       
  40 H40           -2.8847    -3.6503     4.0599 H       
  41 H41            1.3786    -3.5669     3.6447 H       
  42 H42            1.1288    -2.7428     1.3401 H       
  43 H43            1.6126    -4.2893     5.6490 H       
  44 H44            1.0426    -5.1421     8.0617 H       
  45 H45           -1.9293    -4.4335     9.2627 H       
  46 H46           -2.7188    -5.7218     8.3217 H       
  47 H47           -1.1857    -6.0478     9.1654 H       
  48 H48           -1.1889     3.9963     0.9347 H       
  49 H49           -1.2019     4.0055    -0.8524 H       
  50 H50           -3.2081     5.6634     0.0632 H       
  51 H51           -5.3546     3.9170     1.3563 H       
  52 H52           -6.2944     6.0493     2.1579 H       
  53 H53           -5.0121     6.9519     1.3133 H       
  54 H54           -7.1135     5.1620     0.0082 H       
  55 H55           -7.0736     6.9410    -0.0411 H       
  56 H56           -4.1490     4.8522    -2.0678 H       
  57 H57           -5.3913     3.9319    -1.1852 H       
  58 H58           -4.3871     4.8733     3.3209 H       
@<TRIPOS>BOND
   1    1    2 ar
   2    1    7 1
   3    1    6 ar
   4    2    3 ar
   5    2    8 1
   6    3    4 ar
   7    3    9 1
   8    4    5 ar
   9    4   33 1
  10    5    6 ar
  11    5   22 1
  12    6   24 1
  13    8   34 1
  14    8   35 1
  15    8   36 1
  16    9   10 1
  17    9   37 1
  18    9   38 1
  19   10   11 ar
  20   10   15 ar
  21   11   12 ar
  22   11   39 1
  23   12   13 ar
  24   12   40 1
  25   13   14 ar
  26   13   16 1
  27   14   15 ar
  28   14   41 1
  29   15   42 1
  30   16   17 1
  31   16   20 2
  32   17   18 2
  33   17   43 1
  34   18   19 1
  35   18   44 1
  36   19   20 1
  37   19   21 1
  38   21   45 1
  39   21   46 1
  40   21   47 1
  41   22   23 am
  42   22   25 2
  43   23   24 1
  44   23   26 1
  45   24   48 1
  46   24   49 1
  47   26   27 1
  48   26   31 1
  49   26   50 1
  50   27   28 1
  51   27   32 1
  52   27   51 1
  53   28   29 1
  54   28   52 1
  55   28   53 1
  56   29   30 1
  57   29   54 1
  58   29   55 1
  59   30   31 1
  60   31   56 1
  61   31   57 1
  62   32   58 1

#	End of record

