#	Name: ASD01811107
#	Creating user name:	WinNT
#	Creation time:	15. 06. 2019 19:26

#	Modifying user name:	WinNT
#	Modification time:	15. 06. 2019 19:26

#	Program:	/corina/corina34_cracker 3.40 0067  02.08.2006

@<TRIPOS>MOLECULE
ASD01811107
  46   49    0    0    0
SMALL
NO_CHARGES


@<TRIPOS>ATOM
   1 C1            -0.6625     1.4724     0.0050 C.2     
   2 C2            -0.4069     0.1539    -0.0316 C.2     
   3 N3            -1.4199    -0.7578     0.0642 N.pl3   
   4 C4            -2.7086    -0.4173     0.1849 C.2     
   5 C5            -3.0739     0.9139     0.2216 C.2     
   6 C6            -2.0073     1.9194     0.1319 C.2     
   7 C7            -1.0779    -2.1820     0.0326 C.3     
   8 C8            -1.2003    -2.6968    -1.3785 C.ar    
   9 O9            -2.2692     3.1115     0.1580 O.2     
  10 C10           -4.4846     1.3116     0.3508 C.2     
  11 O11           -5.3508     0.4625     0.4274 O.2     
  12 O12           -4.8162     2.6176     0.3844 O.3     
  13 C13           -0.0807    -2.7671    -2.1868 C.ar    
  14 C14           -0.1897    -3.2389    -3.4804 C.ar    
  15 C15           -1.4248    -3.6428    -3.9687 C.ar    
  16 C16           -2.5471    -3.5711    -3.1548 C.ar    
  17 C17           -2.4310    -3.1033    -1.8603 C.ar    
  18 N18           -1.5387    -4.1218    -5.2817 N.pl3   
  19 C19            0.4110     2.5248    -0.0759 C.3     
  20 C20            1.7056     1.9363    -0.6326 C.3     
  21 C21            2.0313     0.6642     0.1599 C.3     
  22 C22            0.9898    -0.3959    -0.1883 C.3     
  23 O23           -0.0303     3.5822    -0.9298 O.3     
  24 C24           -2.6865    -4.5528    -5.8954 C.2     
  25 C25           -2.3456    -4.9227    -7.1445 C.2     
  26 N26           -1.0275    -4.7251    -7.2948 N.2     
  27 C27           -0.5338    -4.2410    -6.1878 C.2     
  28 H28           -3.4646    -1.1855     0.2535 H       
  29 H29           -0.0542    -2.3176     0.3813 H       
  30 H30           -1.7587    -2.7336     0.6809 H       
  31 H31           -5.7557     2.8299     0.4703 H       
  32 H32            0.8799    -2.4524    -1.8065 H       
  33 H33            0.6851    -3.2933    -4.1115 H       
  34 H34           -3.5094    -3.8842    -3.5321 H       
  35 H35           -3.3037    -3.0476    -1.2265 H       
  36 H36            0.5979     2.9239     0.9210 H       
  37 H37            1.5745     1.6899    -1.6863 H       
  38 H38            2.5155     2.6571    -0.5206 H       
  39 H39            3.0246     0.3065    -0.1111 H       
  40 H40            1.9956     0.8774     1.2283 H       
  41 H41            1.1145    -1.2526     0.4740 H       
  42 H42            1.1353    -0.7167    -1.2198 H       
  43 H43            0.6104     4.2994    -1.0310 H       
  44 H44           -3.6743    -4.5891    -5.4603 H       
  45 H45           -3.0173    -5.3118    -7.8953 H       
  46 H46            0.5016    -3.9845    -6.0184 H       
@<TRIPOS>BOND
   1    1    2 2
   2    1   19 1
   3    1    6 1
   4    2    3 1
   5    2   22 1
   6    3    4 1
   7    3    7 1
   8    4    5 2
   9    4   28 1
  10    5    6 1
  11    5   10 1
  12    6    9 2
  13    7    8 1
  14    7   29 1
  15    7   30 1
  16    8   13 ar
  17    8   17 ar
  18   10   11 2
  19   10   12 1
  20   12   31 1
  21   13   14 ar
  22   13   32 1
  23   14   15 ar
  24   14   33 1
  25   15   16 ar
  26   15   18 1
  27   16   17 ar
  28   16   34 1
  29   17   35 1
  30   18   24 1
  31   18   27 1
  32   19   20 1
  33   19   23 1
  34   19   36 1
  35   20   21 1
  36   20   37 1
  37   20   38 1
  38   21   22 1
  39   21   39 1
  40   21   40 1
  41   22   41 1
  42   22   42 1
  43   23   43 1
  44   24   25 2
  45   24   44 1
  46   25   26 1
  47   25   45 1
  48   26   27 2
  49   27   46 1

#	End of record

