#	Name: ASD01885153
#	Creating user name:	WinNT
#	Creation time:	15. 06. 2019 19:49

#	Modifying user name:	WinNT
#	Modification time:	15. 06. 2019 19:49

#	Program:	/corina/corina34_cracker 3.40 0067  02.08.2006

@<TRIPOS>MOLECULE
ASD01885153
  52   56    0    0    0
SMALL
NO_CHARGES


@<TRIPOS>ATOM
   1 C1            -0.9443     0.4159     0.7523 C.2     
   2 C2             0.7443    -1.2349     0.3861 C.2     
   3 C3             1.7033    -0.2076     0.3758 C.2     
   4 C4             1.3290     1.0772     0.5501 C.2     
   5 N5             0.0161     1.3972     0.7372 N.pl3   
   6 C6            -0.6462     2.5694     0.9329 C.2     
   7 N7            -1.9178     2.2874     1.0548 N.2     
   8 N8            -2.1059     1.0191     0.9453 N.2     
   9 C9            -0.0278     3.9421     0.9978 C.3     
  10 C10            1.1686    -2.6678     0.1916 C.3     
  11 C11            0.0136     4.5498    -0.4057 C.3     
  12 N12            1.2598    -2.9608    -1.2450 N.3     
  13 C13           -0.5693    -0.9305     0.5724 C.2     
  14 C14            0.5013     5.9941    -0.5361 C.3     
  15 C15            1.3891     4.8413    -1.0091 C.3     
  16 C16            1.8943    -4.2647    -1.4769 C.3     
  17 C17            2.1043    -4.4714    -2.9787 C.3     
  18 C18            0.7509    -4.4074    -3.6919 C.3     
  19 C19            0.0895    -3.0587    -3.3947 C.3     
  20 C20           -0.0621    -2.8930    -1.8809 C.3     
  21 O21            0.9467    -4.5431    -5.1009 O.3     
  22 C22           -0.0963    -5.0279    -5.8249 C.ar    
  23 C23            0.0518    -5.2990    -7.1776 C.ar    
  24 C24           -1.3259    -5.2648    -5.2193 C.ar    
  25 C25           -2.3594    -5.7598    -5.9985 C.ar    
  26 C26           -2.1366    -6.0001    -7.3412 C.ar    
  27 N27           -0.9569    -5.7697    -7.8836 N.ar    
  28 Cl28          -1.7681    -2.1860     0.5887 Cl      
  29 H29            2.7458    -0.4477     0.2278 H       
  30 H30            2.0746     1.8583     0.5407 H       
  31 H31           -0.6238     4.5786     1.6519 H       
  32 H32            0.9861     3.8657     1.3907 H       
  33 H33            2.1417    -2.8250     0.6569 H       
  34 H34            0.4348    -3.3297     0.6515 H       
  35 H35           -0.7743     4.2215    -1.0836 H       
  36 H36            0.0344     6.6159    -1.3000 H       
  37 H37            0.7926     6.5114     0.3780 H       
  38 H38            2.2645     4.6001    -0.4061 H       
  39 H39            1.5063     4.7046    -2.0841 H       
  40 H40            2.8577    -4.2954    -0.9679 H       
  41 H41            1.2527    -5.0552    -1.0877 H       
  42 H42            2.7571    -3.6891    -3.3659 H       
  43 H43            2.5610    -5.4459    -3.1515 H       
  44 H44            0.1114    -5.2137    -3.3327 H       
  45 H45            0.7106    -2.2542    -3.7885 H       
  46 H46           -0.8933    -3.0240    -3.8648 H       
  47 H47           -0.6945    -3.6899    -1.4898 H       
  48 H48           -0.5197    -1.9275    -1.6653 H       
  49 H49            1.0033    -5.1222    -7.6570 H       
  50 H50           -1.4714    -5.0680    -4.1674 H       
  51 H51           -3.3274    -5.9559    -5.5616 H       
  52 H52           -2.9382    -6.3863    -7.9534 H       
@<TRIPOS>BOND
   1    1   13 1
   2    1    5 1
   3    1    8 2
   4    2    3 1
   5    2   10 1
   6    2   13 2
   7    3    4 2
   8    3   29 1
   9    4    5 1
  10    4   30 1
  11    5    6 1
  12    6    7 2
  13    6    9 1
  14    7    8 1
  15    9   11 1
  16    9   31 1
  17    9   32 1
  18   10   12 1
  19   10   33 1
  20   10   34 1
  21   11   14 1
  22   11   15 1
  23   11   35 1
  24   12   16 1
  25   12   20 1
  26   13   28 1
  27   14   15 1
  28   14   36 1
  29   14   37 1
  30   15   38 1
  31   15   39 1
  32   16   17 1
  33   16   40 1
  34   16   41 1
  35   17   18 1
  36   17   42 1
  37   17   43 1
  38   18   19 1
  39   18   21 1
  40   18   44 1
  41   19   20 1
  42   19   45 1
  43   19   46 1
  44   20   47 1
  45   20   48 1
  46   21   22 1
  47   22   24 ar
  48   22   23 ar
  49   23   27 ar
  50   23   49 1
  51   24   25 ar
  52   24   50 1
  53   25   26 ar
  54   25   51 1
  55   26   27 ar
  56   26   52 1

#	End of record

