#	Name: ASD04660012
#	Creating user name:	WinNT
#	Creation time:	15. 06. 2019 20:52

#	Modifying user name:	WinNT
#	Modification time:	15. 06. 2019 20:52

#	Program:	/corina/corina34_cracker 3.40 0067  02.08.2006

@<TRIPOS>MOLECULE
ASD04660012
  46   49    0    0    0
SMALL
NO_CHARGES


@<TRIPOS>ATOM
   1 C1             6.3834     1.4455     2.9009 C.ar    
   2 C2             6.4214     0.0522     2.8140 C.ar    
   3 C3             5.6232    -0.6477     1.9557 C.ar    
   4 C4             4.7325     0.0586     1.1313 C.ar    
   5 C5             4.7112     1.4609     1.2371 C.ar    
   6 C6             5.5308     2.1607     2.1164 C.ar    
   7 C7             3.8615    -0.5427     0.2076 C.ar    
   8 C8             3.0416     0.2537    -0.5382 C.ar    
   9 C9             3.0377     1.6453    -0.4153 C.ar    
  10 C10            3.8692     2.2599     0.4700 C.ar    
  11 C11            4.1294     3.6944     0.8603 C.3     
  12 C12            5.2261     3.6291     1.9457 C.3     
  13 C13            0.1782    -3.3484     3.5180 C.ar    
  14 O14            1.6405    -4.9729     2.5323 O.3     
  15 C15           -0.0182    -2.5361     4.6191 C.ar    
  16 C16           -1.3003    -2.2721     5.0634 C.ar    
  17 C17           -2.3860    -2.8199     4.4062 C.ar    
  18 C18           -2.1897    -3.6315     3.3045 C.ar    
  19 C19           -0.9078    -3.8920     2.8576 C.ar    
  20 S20            3.8286    -2.2938     0.0149 S.o2    
  21 O21            2.8196    -2.5728    -0.9460 O.2     
  22 O22            5.1801    -2.7064    -0.1351 O.2     
  23 N23            3.3002    -2.9348     1.4474 N.am    
  24 C24            1.9414    -2.6549     1.9182 C.3     
  25 C25            1.5759    -3.6363     3.0337 C.3     
  26 N26           -3.7589    -2.5380     4.8825 N.pl3   
  27 O27           -3.9318    -1.8233     5.8535 O.2     
  28 O28           -4.7155    -3.0207     4.3035 O.2     
  29 H29            7.0305     1.9582     3.5972 H       
  30 H30            7.1068    -0.4907     3.4479 H       
  31 H31            5.6761    -1.7255     1.9113 H       
  32 H32            2.3722    -0.2083    -1.2487 H       
  33 H33            2.3718     2.2366    -1.0262 H       
  34 H34            4.4839     4.2617    -0.0003 H       
  35 H35            3.2235     4.1463     1.2644 H       
  36 H36            4.8568     4.0495     2.8811 H       
  37 H37            6.1168     4.1638     1.6159 H       
  38 H38            1.0413    -5.1450     1.7932 H       
  39 H39            0.8301    -2.1081     5.1326 H       
  40 H40           -1.4537    -1.6381     5.9241 H       
  41 H41           -3.0380    -4.0598     2.7913 H       
  42 H42           -0.7543    -4.5260     1.9969 H       
  43 H43            3.8904    -3.4955     1.9748 H       
  44 H44            1.8922    -1.6354     2.3006 H       
  45 H45            1.2401    -2.7671     1.0914 H       
  46 H46            2.2773    -3.5241     3.8605 H       
@<TRIPOS>BOND
   1    1    2 ar
   2    1    6 ar
   3    1   29 1
   4    2    3 ar
   5    2   30 1
   6    3    4 ar
   7    3   31 1
   8    4    5 ar
   9    4    7 ar
  10    5    6 ar
  11    5   10 ar
  12    6   12 1
  13    7    8 ar
  14    7   20 1
  15    8    9 ar
  16    8   32 1
  17    9   10 ar
  18    9   33 1
  19   10   11 1
  20   11   12 1
  21   11   34 1
  22   11   35 1
  23   12   36 1
  24   12   37 1
  25   13   15 ar
  26   13   25 1
  27   13   19 ar
  28   14   25 1
  29   14   38 1
  30   15   16 ar
  31   15   39 1
  32   16   17 ar
  33   16   40 1
  34   17   18 ar
  35   17   26 1
  36   18   19 ar
  37   18   41 1
  38   19   42 1
  39   20   21 2
  40   20   22 2
  41   20   23 am
  42   23   24 1
  43   23   43 1
  44   24   25 1
  45   24   44 1
  46   24   45 1
  47   25   46 1
  48   26   27 2
  49   26   28 2

#	End of record

