#	Name: ASD02030149
#	Creating user name:	WinNT
#	Creation time:	15. 06. 2019 20:14

#	Modifying user name:	WinNT
#	Modification time:	15. 06. 2019 20:14

#	Program:	/corina/corina34_cracker 3.40 0067  02.08.2006

@<TRIPOS>MOLECULE
ASD02030149
  24   25    0    0    0
SMALL
NO_CHARGES


@<TRIPOS>ATOM
   1 C1            -0.0179     1.4689     0.0101 C.3     
   2 N2             0.0021    -0.0041     0.0020 N.am    
   3 C3             1.2962    -0.3712    -0.0123 C.2     
   4 O4             1.6703    -1.5276    -0.0221 O.2     
   5 N5             2.1254     0.6787    -0.0146 N.am    
   6 C6             1.4504     1.8452    -0.0019 C.2     
   7 O7             1.9200     2.9629    -0.0011 O.2     
   8 C8            -0.7105     1.9965    -1.2199 C.ar    
   9 C9            -1.5319     3.1046    -1.1288 C.ar    
  10 C10           -2.1673     3.5886    -2.2571 C.ar    
  11 C11           -1.9809     2.9647    -3.4765 C.ar    
  12 C12           -1.1587     1.8572    -3.5677 C.ar    
  13 C13           -0.5200     1.3758    -2.4403 C.ar    
  14 C14            3.5865     0.5735    -0.0283 C.3     
  15 H15           -0.5017     1.8409     0.9132 H       
  16 H16           -0.7678    -0.5942     0.0067 H       
  17 H17           -1.6776     3.5920    -0.1762 H       
  18 H18           -2.8096     4.4539    -2.1858 H       
  19 H19           -2.4778     3.3424    -4.3579 H       
  20 H20           -1.0134     1.3696    -4.5204 H       
  21 H21            0.1253     0.5127    -2.5122 H       
  22 H22            3.8750    -0.4776    -0.0366 H       
  23 H23            3.9778     1.0647    -0.9193 H       
  24 H24            3.9939     1.0551     0.8606 H       
@<TRIPOS>BOND
   1    1    2 1
   2    1    6 1
   3    1    8 1
   4    1   15 1
   5    2    3 am
   6    2   16 1
   7    3    4 2
   8    3    5 am
   9    5    6 am
  10    5   14 1
  11    6    7 2
  12    8    9 ar
  13    8   13 ar
  14    9   10 ar
  15    9   17 1
  16   10   11 ar
  17   10   18 1
  18   11   12 ar
  19   11   19 1
  20   12   13 ar
  21   12   20 1
  22   13   21 1
  23   14   22 1
  24   14   23 1
  25   14   24 1

#	End of record

