#	Name: ASD03330814
#	Creating user name:	WinNT
#	Creation time:	15. 06. 2019 20:38

#	Modifying user name:	WinNT
#	Modification time:	15. 06. 2019 20:38

#	Program:	/corina/corina34_cracker 3.40 0067  02.08.2006

@<TRIPOS>MOLECULE
ASD03330814
  54   56    0    0    0
SMALL
NO_CHARGES


@<TRIPOS>ATOM
   1 C1            -0.0025     1.3583    -0.1267 C.2     
   2 N2             0.0179     0.0077    -0.2184 N.pl3   
   3 C3             1.2719     1.7629     0.1340 C.2     
   4 N4             2.0522     0.6613     0.1804 N.2     
   5 C5             1.3078    -0.3976    -0.0361 C.2     
   6 C6             1.7873    -1.7967    -0.0762 C.ar    
   7 C7             1.7193     3.1533     0.3296 C.2     
   8 O8             0.9173     4.0652     0.2628 O.2     
   9 N9             3.0171     3.4145     0.5826 N.am    
  10 C10           -1.1492    -0.8461    -0.4565 C.3     
  11 C11           -1.9665    -0.2689    -1.6163 C.3     
  12 C12           -2.9659     0.7532    -1.0839 C.3     
  13 N13           -2.4178     1.4736     0.0673 N.3     
  14 C14           -1.2154     2.2348    -0.3025 C.3     
  15 C15            0.9516    -2.8356     0.3346 C.ar    
  16 C16            1.4047    -4.1383     0.2949 C.ar    
  17 C17            2.6846    -4.4152    -0.1512 C.ar    
  18 C18            3.5183    -3.3895    -0.5595 C.ar    
  19 C19            3.0749    -2.0832    -0.5304 C.ar    
  20 C20            3.4618     4.7967     0.7770 C.3     
  21 C21            4.7154     4.8082     1.6132 C.2     
  22 C22            3.7500     5.4358    -0.5829 C.3     
  23 C23            2.4772     5.4242    -1.4319 C.3     
  24 F24            4.1746     6.7558    -0.3973 F       
  25 C25            4.8465     4.6429    -1.2969 C.3     
  26 O26            5.1907     3.7645     2.0079 O.2     
  27 N27            5.3085     5.9783     1.9224 N.am    
  28 C28            6.5272     5.9894     2.7354 C.3     
  29 H29            3.6567     2.6872     0.6359 H       
  30 H30           -0.8182    -1.8532    -0.7099 H       
  31 H31           -1.7654    -0.8795     0.4421 H       
  32 H32           -1.2962     0.2155    -2.3264 H       
  33 H33           -2.5036    -1.0742    -2.1174 H       
  34 H34           -3.2028     1.4668    -1.8730 H       
  35 H35           -3.8782     0.2383    -0.7826 H       
  36 H36           -3.1135     2.0754     0.4819 H       
  37 H37           -1.1275     3.1115     0.3392 H       
  38 H38           -1.2894     2.5499    -1.3433 H       
  39 H39           -0.0476    -2.6206     0.6834 H       
  40 H40            0.7589    -4.9433     0.6130 H       
  41 H41            3.0346    -5.4365    -0.1805 H       
  42 H42            4.5167    -3.6121    -0.9061 H       
  43 H43            3.7267    -1.2833    -0.8494 H       
  44 H44            2.6806     5.3616     1.2856 H       
  45 H45            1.6960     5.9890    -0.9233 H       
  46 H46            2.6825     5.8795    -2.4008 H       
  47 H47            2.1463     4.3957    -1.5766 H       
  48 H48            4.5157     3.6145    -1.4416 H       
  49 H49            5.0519     5.0982    -2.2658 H       
  50 H50            5.7533     4.6512    -0.6921 H       
  51 H51            4.9284     6.8130     1.6068 H       
  52 H52            6.3219     5.5341     3.7042 H       
  53 H53            7.3085     5.4245     2.2267 H       
  54 H54            6.8581     7.0178     2.8800 H       
@<TRIPOS>BOND
   1    1    2 1
   2    1    3 2
   3    1   14 1
   4    2   10 1
   5    2    5 1
   6    3    4 1
   7    3    7 1
   8    4    5 2
   9    5    6 1
  10    6   15 ar
  11    6   19 ar
  12    7    8 2
  13    7    9 am
  14    9   20 1
  15    9   29 1
  16   10   11 1
  17   10   30 1
  18   10   31 1
  19   11   12 1
  20   11   32 1
  21   11   33 1
  22   12   13 1
  23   12   34 1
  24   12   35 1
  25   13   14 1
  26   13   36 1
  27   14   37 1
  28   14   38 1
  29   15   16 ar
  30   15   39 1
  31   16   17 ar
  32   16   40 1
  33   17   18 ar
  34   17   41 1
  35   18   19 ar
  36   18   42 1
  37   19   43 1
  38   20   21 1
  39   20   22 1
  40   20   44 1
  41   21   26 2
  42   21   27 am
  43   22   23 1
  44   22   24 1
  45   22   25 1
  46   23   45 1
  47   23   46 1
  48   23   47 1
  49   25   48 1
  50   25   49 1
  51   25   50 1
  52   27   28 1
  53   27   51 1
  54   28   52 1
  55   28   53 1
  56   28   54 1

#	End of record

