#	Name: ASD09740683
#	Creating user name:	WinNT
#	Creation time:	15. 06. 2019 21:23

#	Modifying user name:	WinNT
#	Modification time:	15. 06. 2019 21:23

#	Program:	/corina/corina34_cracker 3.40 0067  02.08.2006

@<TRIPOS>MOLECULE
ASD09740683
  68   71    0    0    0
SMALL
NO_CHARGES


@<TRIPOS>ATOM
   1 C1             1.8279    -2.1231     1.6967 C.2     
   2 C2             2.0832    -0.7063     1.2510 C.3     
   3 O3             1.1394    -2.8533     1.0238 O.2     
   4 O4             2.3698    -2.5755     2.8383 O.3     
   5 N5             1.3923    -0.4614    -0.0175 N.am    
   6 C6             2.1157    -0.5986    -1.2840 C.3     
   7 C7             3.2171     0.4773    -1.3910 C.3     
   8 C8             4.4491    -0.2530    -0.8154 C.3     
   9 C9             4.1874    -1.7235    -1.0604 C.ar    
  10 C10            5.0623    -2.8140    -1.0483 C.ar    
  11 C11            4.5792    -4.0961    -1.3077 C.ar    
  12 C12            3.2385    -4.2819    -1.5754 C.ar    
  13 C13            2.3777    -3.2006    -1.5867 C.ar    
  14 C14            2.8492    -1.9223    -1.3293 C.ar    
  15 S15            7.7366    -3.8633    -0.7055 S.3     
  16 C16            6.4977    -2.6079    -0.7613 C.2     
  17 N17            7.0740    -1.4648    -0.5046 N.2     
  18 N18            8.3151    -1.4718    -0.2816 N.2     
  19 C19            8.9320    -2.6225    -0.3240 C.2     
  20 C20           10.3748    -2.8454    -0.0939 C.ar    
  21 C21           11.2075    -1.7687     0.2002 C.ar    
  22 C22           12.5676    -1.9849     0.4163 C.ar    
  23 C23           13.0873    -3.2857     0.3358 C.ar    
  24 C24           12.2483    -4.3509     0.0420 C.ar    
  25 C25           10.9025    -4.1379    -0.1659 C.ar    
  26 O26           14.4103    -3.5017     0.5447 O.3     
  27 C27           14.8926    -4.8296     0.3302 C.3     
  28 C28           16.3852    -4.7826    -0.0023 C.3     
  29 C29           14.6781    -5.6609     1.5966 C.3     
  30 C30           13.4312    -0.8834     0.7188 C.1     
  31 N31           14.1163    -0.0096     0.9589 N.1     
  32 C32            0.0912    -0.1099    -0.0192 C.2     
  33 O33           -0.4577     0.1829    -1.0630 O.2     
  34 O34           -0.6004    -0.0830     1.1357 O.3     
  35 C35           -1.9975     0.3049     1.0585 C.3     
  36 C36           -2.7488    -0.6723     0.1520 C.3     
  37 C37           -2.6127     0.2770     2.4591 C.3     
  38 C38           -2.1033     1.7186     0.4830 C.3     
  39 H39            1.7109    -0.0149     2.0069 H       
  40 H40            3.1543    -0.5552     1.1164 H       
  41 H41            2.1776    -3.4911     3.0829 H       
  42 H42            1.4264    -0.5192    -2.1247 H       
  43 H43            3.3842     0.7590    -2.4306 H       
  44 H44            2.9667     1.3497    -0.7874 H       
  45 H45            5.3533     0.0622    -1.3362 H       
  46 H46            4.5395    -0.0578     0.2532 H       
  47 H47            5.2523    -4.9408    -1.2995 H       
  48 H48            2.8611    -5.2736    -1.7767 H       
  49 H49            1.3294    -3.3525    -1.7976 H       
  50 H50           10.8012    -0.7699     0.2604 H       
  51 H51           12.6505    -5.3513    -0.0195 H       
  52 H52           10.2541    -4.9720    -0.3898 H       
  53 H53           14.3498    -5.2839    -0.4988 H       
  54 H54           16.9280    -4.3284     0.8266 H       
  55 H55           16.7531    -5.7955    -0.1660 H       
  56 H56           16.5380    -4.1904    -0.9046 H       
  57 H57           13.6147    -5.6944     1.8335 H       
  58 H58           15.0460    -6.6738     1.4330 H       
  59 H59           15.2209    -5.2067     2.4256 H       
  60 H60           -2.6734    -1.6794     0.5619 H       
  61 H61           -3.7976    -0.3811     0.0940 H       
  62 H62           -2.3105    -0.6524    -0.8459 H       
  63 H63           -2.0775     0.9731     3.1049 H       
  64 H64           -3.6615     0.5682     2.4011 H       
  65 H65           -2.5373    -0.7301     2.8690 H       
  66 H66           -1.6650     1.7384    -0.5148 H       
  67 H67           -3.1520     2.0098     0.4251 H       
  68 H68           -1.5680     2.4147     1.1288 H       
@<TRIPOS>BOND
   1    1    2 1
   2    1    3 2
   3    1    4 1
   4    2    5 1
   5    2   39 1
   6    2   40 1
   7    4   41 1
   8    5   32 am
   9    5    6 1
  10    6    7 1
  11    6   14 1
  12    6   42 1
  13    7    8 1
  14    7   43 1
  15    7   44 1
  16    8    9 1
  17    8   45 1
  18    8   46 1
  19    9   10 ar
  20    9   14 ar
  21   10   11 ar
  22   10   16 1
  23   11   12 ar
  24   11   47 1
  25   12   13 ar
  26   12   48 1
  27   13   14 ar
  28   13   49 1
  29   15   16 1
  30   15   19 1
  31   16   17 2
  32   17   18 1
  33   18   19 2
  34   19   20 1
  35   20   21 ar
  36   20   25 ar
  37   21   22 ar
  38   21   50 1
  39   22   23 ar
  40   22   30 1
  41   23   24 ar
  42   23   26 1
  43   24   25 ar
  44   24   51 1
  45   25   52 1
  46   26   27 1
  47   27   28 1
  48   27   29 1
  49   27   53 1
  50   28   54 1
  51   28   55 1
  52   28   56 1
  53   29   57 1
  54   29   58 1
  55   29   59 1
  56   30   31 3
  57   32   33 2
  58   32   34 1
  59   34   35 1
  60   35   36 1
  61   35   38 1
  62   35   37 1
  63   36   60 1
  64   36   61 1
  65   36   62 1
  66   37   63 1
  67   37   64 1
  68   37   65 1
  69   38   66 1
  70   38   67 1
  71   38   68 1

#	End of record

