#	Name: ASD00170126
#	Creating user name:	WinNT
#	Creation time:	15. 06. 2019 18:31

#	Modifying user name:	WinNT
#	Modification time:	15. 06. 2019 18:31

#	Program:	/corina/corina34_cracker 3.40 0067  02.08.2006

@<TRIPOS>MOLECULE
ASD00170126
  34   37    0    0    0
SMALL
NO_CHARGES


@<TRIPOS>ATOM
   1 C1            -0.1465     1.4687     0.0753 C.2     
   2 C2            -0.0959    -0.0260     0.0882 C.ar    
   3 C3             1.2116    -0.4500    -0.1270 C.ar    
   4 C4             2.0508     0.7920    -0.2868 C.3     
   5 C5             1.0915     1.9531    -0.1411 C.2     
   6 S6             1.0306     3.7150    -0.1566 S.3     
   7 C7            -0.7028     3.6591     0.1373 C.2     
   8 N8            -1.0863     2.4300     0.2156 N.2     
   9 C9            -1.1093    -0.9691     0.2736 C.ar    
  10 C10           -0.8103    -2.3130     0.2427 C.ar    
  11 C11            0.5018    -2.7342     0.0267 C.ar    
  12 C12            1.5138    -1.7914    -0.1593 C.ar    
  13 N13           -1.5291     4.7642     0.2609 N.pl3   
  14 C14            0.8208    -4.1821    -0.0061 C.ar    
  15 C15            1.7473    -4.7147     0.8884 C.ar    
  16 C16            2.0404    -6.0630     0.8532 C.ar    
  17 C17            1.4164    -6.8852    -0.0675 C.ar    
  18 C18            0.4961    -6.3619    -0.9582 C.ar    
  19 C19            0.1908    -5.0166    -0.9281 C.ar    
  20 C20            2.4284    -3.8200     1.8919 C.3     
  21 F21            3.1925    -4.5986     2.7677 F       
  22 F22            3.2616    -2.9176     1.2222 F       
  23 F23            1.4631    -3.1134     2.6173 F       
  24 H24            2.8137     0.8338     0.4906 H       
  25 H25            2.5153     0.8085    -1.2727 H       
  26 H26           -2.1258    -0.6449     0.4413 H       
  27 H27           -1.5936    -3.0426     0.3864 H       
  28 H28            2.5308    -2.1140    -0.3270 H       
  29 H29           -1.1588     5.6576     0.1852 H       
  30 H30           -2.4779     4.6446     0.4231 H       
  31 H31            2.7585    -6.4768     1.5457 H       
  32 H32            1.6488    -7.9396    -0.0914 H       
  33 H33            0.0125    -7.0085    -1.6755 H       
  34 H34           -0.5281    -4.6093    -1.6236 H       
@<TRIPOS>BOND
   1    1    2 1
   2    1    5 2
   3    1    8 1
   4    2    3 ar
   5    2    9 ar
   6    3    4 1
   7    3   12 ar
   8    4    5 1
   9    4   24 1
  10    4   25 1
  11    5    6 1
  12    6    7 1
  13    7    8 2
  14    7   13 1
  15    9   10 ar
  16    9   26 1
  17   10   11 ar
  18   10   27 1
  19   11   12 ar
  20   11   14 1
  21   12   28 1
  22   13   29 1
  23   13   30 1
  24   14   15 ar
  25   14   19 ar
  26   15   16 ar
  27   15   20 1
  28   16   17 ar
  29   16   31 1
  30   17   18 ar
  31   17   32 1
  32   18   19 ar
  33   18   33 1
  34   19   34 1
  35   20   21 1
  36   20   22 1
  37   20   23 1

#	End of record

