#	Name: ASD01917344
#	Creating user name:	WinNT
#	Creation time:	15. 06. 2019 20:09

#	Modifying user name:	WinNT
#	Modification time:	15. 06. 2019 20:09

#	Program:	/corina/corina34_cracker 3.40 0067  02.08.2006

@<TRIPOS>MOLECULE
ASD01917344
  51   54    0    0    0
SMALL
NO_CHARGES


@<TRIPOS>ATOM
   1 S1            -0.0285     1.7678     0.0001 S.3     
   2 C2            -0.0008     0.0071    -0.0010 C.2     
   3 N3             1.2407    -0.3967    -0.0121 N.2     
   4 C4             2.1473     0.5447    -0.0197 C.2     
   5 C5             1.6818     1.8037    -0.0150 C.2     
   6 C6            -1.1854    -0.8677     0.0096 C.2     
   7 O7            -1.0489    -2.0762     0.0082 O.2     
   8 N8            -2.4208    -0.3290     0.0207 N.am    
   9 C9            -3.5992    -1.1993     0.0312 C.3     
  10 C10           -3.6537    -2.1332    -1.1905 C.3     
  11 C11           -4.7730    -3.1561    -0.9866 C.3     
  12 C12           -6.1035    -2.4452    -0.7317 C.3     
  13 C13           -5.9436    -1.4979     0.4703 C.3     
  14 C14           -5.1942    -2.2759     1.5764 C.3     
  15 C15           -3.6732    -2.0862     1.2955 C.3     
  16 C16           -4.9308    -0.4029     0.0428 C.3     
  17 C17           -7.2603    -0.9389     0.9444 C.2     
  18 N18           -8.2366    -1.7716     1.3567 N.am    
  19 O19           -7.4414     0.2602     0.9550 O.2     
  20 C20           -9.4130    -1.2534     1.8960 C.ar    
  21 C21          -10.4588    -2.1108     2.2191 C.ar    
  22 C22          -11.6206    -1.5834     2.7541 C.ar    
  23 C23          -11.6968    -0.2108     2.9484 C.ar    
  24 C24          -10.6194     0.5814     2.6047 C.ar    
  25 N25           -9.5221     0.0496     2.1009 N.ar    
  26 C26          -10.6959     2.0720     2.8126 C.3     
  27 C27            3.6224     0.2362    -0.0325 C.3     
  28 H28            2.2896     2.6964    -0.0207 H       
  29 H29           -2.5296     0.6348     0.0218 H       
  30 H30           -3.8534    -1.5482    -2.0882 H       
  31 H31           -2.7007    -2.6517    -1.2960 H       
  32 H32           -4.8608    -3.7771    -1.8781 H       
  33 H33           -4.5324    -3.7885    -0.1320 H       
  34 H34           -6.3848    -1.8705    -1.6141 H       
  35 H35           -6.8755    -3.1833    -0.5141 H       
  36 H36           -5.4465    -1.8704     2.5562 H       
  37 H37           -5.4521    -3.3340     1.5306 H       
  38 H38           -3.2032    -3.0509     1.1044 H       
  39 H39           -3.1817    -1.5885     2.1315 H       
  40 H40           -4.8921     0.4128     0.7647 H       
  41 H41           -5.1721    -0.0305    -0.9528 H       
  42 H42           -8.1207    -2.7314     1.2781 H       
  43 H43          -10.3656    -3.1741     2.0543 H       
  44 H44          -12.4496    -2.2248     3.0144 H       
  45 H45          -12.5897     0.2328     3.3637 H       
  46 H46          -10.3299     2.3191     3.8091 H       
  47 H47          -10.0824     2.5750     2.0651 H       
  48 H48          -11.7307     2.4000     2.7139 H       
  49 H49            3.9692     0.1625    -1.0632 H       
  50 H50            4.1646     1.0326     0.4773 H       
  51 H51            3.8002    -0.7096     0.4793 H       
@<TRIPOS>BOND
   1    1    2 1
   2    1    5 1
   3    2    3 2
   4    2    6 1
   5    3    4 1
   6    4    5 2
   7    4   27 1
   8    5   28 1
   9    6    7 2
  10    6    8 am
  11    8    9 1
  12    8   29 1
  13    9   10 1
  14    9   15 1
  15    9   16 1
  16   10   11 1
  17   10   30 1
  18   10   31 1
  19   11   12 1
  20   11   32 1
  21   11   33 1
  22   12   13 1
  23   12   34 1
  24   12   35 1
  25   13   14 1
  26   13   16 1
  27   13   17 1
  28   14   15 1
  29   14   36 1
  30   14   37 1
  31   15   38 1
  32   15   39 1
  33   16   40 1
  34   16   41 1
  35   17   18 am
  36   17   19 2
  37   18   20 1
  38   18   42 1
  39   20   21 ar
  40   20   25 ar
  41   21   22 ar
  42   21   43 1
  43   22   23 ar
  44   22   44 1
  45   23   24 ar
  46   23   45 1
  47   24   25 ar
  48   24   26 1
  49   26   46 1
  50   26   47 1
  51   26   48 1
  52   27   49 1
  53   27   50 1
  54   27   51 1

#	End of record

