#	Name: ASD08150396
#	Creating user name:	WinNT
#	Creation time:	15. 06. 2019 21:15

#	Modifying user name:	WinNT
#	Modification time:	15. 06. 2019 21:15

#	Program:	/corina/corina34_cracker 3.40 0067  02.08.2006

@<TRIPOS>MOLECULE
ASD08150396
  39   42    0    0    0
SMALL
NO_CHARGES


@<TRIPOS>ATOM
   1 N1            -0.0163     1.3482     0.0095 N.am    
   2 C2             0.0030    -0.0039    -0.0104 C.2     
   3 C3             1.1738    -0.6996    -0.3695 C.2     
   4 C4             2.3187    -0.0074    -0.5949 C.2     
   5 C5             2.3261     1.3946    -0.3954 C.ar    
   6 C6             3.4865     2.1476    -0.6567 C.ar    
   7 N7             3.5206     3.4329    -0.4312 N.ar    
   8 C8             2.4866     4.0821     0.1237 C.ar    
   9 C9             1.2978     3.3845     0.4695 C.ar    
  10 C10            1.1477     2.0535     0.0139 C.ar    
  11 C11            0.3561     4.0406     1.2654 C.ar    
  12 C12            0.5175     5.3817     1.5788 C.ar    
  13 C13            1.6202     6.0953     1.0916 C.ar    
  14 C14            2.5852     5.4599     0.3760 C.ar    
  15 O15           -1.0042    -0.6208     0.2872 O.2     
  16 C16           -0.4849     6.0629     2.4340 C.ar    
  17 C17           -1.3271     1.9983    -0.0812 C.3     
  18 C18           -1.5857     5.3657     2.9238 C.ar    
  19 N19           -2.4786     5.9675     3.6841 N.ar    
  20 C20           -2.3683     7.2448     4.0104 C.ar    
  21 C21           -1.2969     8.0070     3.5590 C.ar    
  22 C22           -0.3344     7.4144     2.7648 C.ar    
  23 O23           -3.3139     7.8187     4.7957 O.3     
  24 C24           -4.3912     6.9855     5.2282 C.3     
  25 H25            1.1613    -1.7739    -0.4651 H       
  26 H26            3.2117    -0.5195    -0.9230 H       
  27 H27            4.3621     1.6526    -1.0504 H       
  28 H28           -0.4813     3.5139     1.6986 H       
  29 H29            1.7035     7.1534     1.2853 H       
  30 H30            3.4315     6.0165     0.0002 H       
  31 H31           -1.7655     2.0725     0.9140 H       
  32 H32           -1.2092     2.9970    -0.5016 H       
  33 H33           -1.9815     1.4087    -0.7233 H       
  34 H34           -1.7095     4.3213     2.6782 H       
  35 H35           -1.2155     9.0493     3.8299 H       
  36 H36            0.5085     7.9826     2.4001 H       
  37 H37           -5.0743     7.5669     5.8474 H       
  38 H38           -4.9256     6.6022     4.3590 H       
  39 H39           -3.9955     6.1517     5.8081 H       
@<TRIPOS>BOND
   1    1    2 am
   2    1   10 1
   3    1   17 1
   4    2    3 1
   5    2   15 2
   6    3    4 2
   7    3   25 1
   8    4    5 1
   9    4   26 1
  10    5    6 ar
  11    5   10 ar
  12    6    7 ar
  13    6   27 1
  14    7    8 ar
  15    8    9 ar
  16    8   14 ar
  17    9   10 ar
  18    9   11 ar
  19   11   12 ar
  20   11   28 1
  21   12   13 ar
  22   12   16 1
  23   13   14 ar
  24   13   29 1
  25   14   30 1
  26   16   18 ar
  27   16   22 ar
  28   17   31 1
  29   17   32 1
  30   17   33 1
  31   18   19 ar
  32   18   34 1
  33   19   20 ar
  34   20   21 ar
  35   20   23 1
  36   21   22 ar
  37   21   35 1
  38   22   36 1
  39   23   24 1
  40   24   37 1
  41   24   38 1
  42   24   39 1

#	End of record

