#	Name: ASD02508144
#	Creating user name:	WinNT
#	Creation time:	15. 06. 2019 20:23

#	Modifying user name:	WinNT
#	Modification time:	15. 06. 2019 20:23

#	Program:	/corina/corina34_cracker 3.40 0067  02.08.2006

@<TRIPOS>MOLECULE
ASD02508144
  36   38    0    0    0
SMALL
NO_CHARGES


@<TRIPOS>ATOM
   1 C1             0.4391     1.9382     0.0150 C.ar    
   2 C2             0.2558     0.5685     0.1210 C.ar    
   3 C3             1.7251     2.4628    -0.1122 C.ar    
   4 C4             2.8172     1.6095    -0.1316 C.ar    
   5 C5             2.6280     0.2455    -0.0251 C.ar    
   6 C6             1.3506    -0.2752     0.1003 C.ar    
   7 N7            -0.4372     3.0229    -0.0019 N.am    
   8 C8             0.3045     4.1412    -0.1279 C.2     
   9 O9             1.6036     3.8106    -0.1955 O.3     
  10 S10            4.0178    -0.8373    -0.0506 S.o2    
  11 N11            4.1127    -1.5484     1.4419 N.am    
  12 C12            4.3509    -0.7652     2.5755 C.ar    
  13 O13           -0.1354     5.2737    -0.1772 O.2     
  14 C14           -1.8974     2.9586     0.0981 C.3     
  15 O15            3.7020    -1.8741    -0.9697 O.2     
  16 O16            5.1676    -0.0116    -0.1756 O.2     
  17 C17            3.5814    -0.9432     3.7178 C.ar    
  18 C18            5.3610     0.1877     2.5627 C.ar    
  19 C19            5.5948     0.9599     3.6838 C.ar    
  20 C20            4.8232     0.7841     4.8200 C.ar    
  21 C21            3.8187    -0.1688     4.8366 C.ar    
  22 Cl22           1.1242    -1.9912     0.2337 Cl      
  23 F23            5.0541     1.5398     5.9158 F       
  24 C24           -2.3117     3.0345     1.5690 C.3     
  25 H25           -0.7397     0.1614     0.2198 H       
  26 H26            3.8150     2.0107    -0.2302 H       
  27 H27            4.0031    -2.5081     1.5298 H       
  28 H28           -2.3361     3.7946    -0.4465 H       
  29 H29           -2.2500     2.0205    -0.3307 H       
  30 H30            2.7977    -1.6863     3.7312 H       
  31 H31            5.9635     0.3247     1.6770 H       
  32 H32            6.3802     1.7011     3.6743 H       
  33 H33            3.2180    -0.3042     5.7239 H       
  34 H34           -1.9591     3.9725     1.9978 H       
  35 H35           -3.3981     2.9866     1.6435 H       
  36 H36           -1.8730     2.1984     2.1137 H       
@<TRIPOS>BOND
   1    1    2 ar
   2    1    3 ar
   3    1    7 1
   4    2    6 ar
   5    2   25 1
   6    3    4 ar
   7    3    9 1
   8    4    5 ar
   9    4   26 1
  10    5    6 ar
  11    5   10 1
  12    6   22 1
  13    7    8 am
  14    7   14 1
  15    8    9 1
  16    8   13 2
  17   10   11 am
  18   10   15 2
  19   10   16 2
  20   11   12 1
  21   11   27 1
  22   12   17 ar
  23   12   18 ar
  24   14   24 1
  25   14   28 1
  26   14   29 1
  27   17   21 ar
  28   17   30 1
  29   18   19 ar
  30   18   31 1
  31   19   20 ar
  32   19   32 1
  33   20   21 ar
  34   20   23 1
  35   21   33 1
  36   24   34 1
  37   24   35 1
  38   24   36 1

#	End of record

