#	Name: ASD06600027
#	Creating user name:	WinNT
#	Creation time:	15. 06. 2019 21:07

#	Modifying user name:	WinNT
#	Modification time:	15. 06. 2019 21:07

#	Program:	/corina/corina34_cracker 3.40 0067  02.08.2006

@<TRIPOS>MOLECULE
ASD06600027
 296  300    0    0    0
SMALL
NO_CHARGES


@<TRIPOS>ATOM
   1 C1            -0.9303    -1.4077     3.3590 C.2     
   2 O2            -0.9975    -2.6186     3.3774 O.2     
   3 N3             1.4666    -1.7366     3.5475 N.am    
   4 C4             0.4107    -0.7260     3.4477 C.3     
   5 C5             0.6347     0.1237     2.1952 C.3     
   6 C6             1.9179     0.9007     2.3382 C.2     
   7 C7             2.9502     0.8899     1.4734 C.2     
   8 N8             3.9030     1.7300     1.9834 N.pl3   
   9 C9             3.4194     2.2253     3.1430 C.2     
  10 N10            2.2298     1.7289     3.3462 N.2     
  11 C11           -4.3354    -0.4259     2.4621 C.2     
  12 O12           -3.9787     0.6680     2.0786 O.2     
  13 N13           -2.0547    -0.6720     3.2538 N.am    
  14 C14           -3.3579    -1.3349     3.1615 C.3     
  15 C15           -3.8707    -1.6497     4.5682 C.3     
  16 C16           -7.9599    -0.2975     2.0039 C.2     
  17 O17           -8.1478    -1.1984     2.7939 O.2     
  18 N18           -5.6061    -0.8285     2.2629 N.am    
  19 C19           -6.5565     0.0552     1.5831 C.3     
  20 C20           -6.4195    -0.1169     0.0690 C.3     
  21 C21           -5.0558     0.3520    -0.3686 C.2     
  22 C22           -4.1579    -0.3683    -1.0675 C.2     
  23 N23           -3.0633     0.4331    -1.2501 N.pl3   
  24 C24           -3.3306     1.6160    -0.6560 C.2     
  25 N25           -4.5260     1.5619    -0.1353 N.2     
  26 C26          -11.3384     0.4674     0.8362 C.2     
  27 O27          -10.9289     1.0021    -0.1724 O.2     
  28 N28           -9.0062     0.3881     1.5023 N.am    
  29 C29          -10.3705     0.0452     1.9114 C.3     
  30 C30          -10.7092     0.7698     3.2157 C.3     
  31 C31           -9.8211     0.2574     4.3201 C.2     
  32 C32           -9.0287     1.0065     5.1104 C.2     
  33 N33           -8.4020     0.1470     5.9718 N.pl3   
  34 C34           -8.8335    -1.0984     5.6777 C.2     
  35 N35           -9.6858    -1.0241     4.6923 N.2     
  36 C36          -14.9587     0.8922     0.5601 C.2     
  37 O37          -15.1247     0.7299     1.7505 O.2     
  38 N38          -12.6591     0.2509     0.9955 N.am    
  39 C39          -13.6000     0.6613    -0.0496 C.3     
  40 C40          -13.6967    -0.4381    -1.1093 C.3     
  41 C41          -18.3716     1.3183    -0.6783 C.2     
  42 O42          -18.0559     1.0274    -1.8126 O.2     
  43 N43          -15.9893     1.2791    -0.2175 N.am    
  44 C44          -17.3101     1.5035     0.3753 C.3     
  45 C45          -17.3850     2.9276     0.9298 C.3     
  46 C46          -16.4073     3.0759     2.0669 C.ar    
  47 C47          -15.1124     3.4895     1.8143 C.ar    
  48 C48          -14.2141     3.6258     2.8549 C.ar    
  49 C49          -14.6124     3.3477     4.1544 C.ar    
  50 O50          -13.7307     3.4814     5.1799 O.3     
  51 C51          -15.9123     2.9332     4.4053 C.ar    
  52 C52          -16.8083     2.8035     3.3618 C.ar    
  53 C53          -21.9316     2.0821    -1.0039 C.2     
  54 O54          -21.9436     2.7293     0.0217 O.2     
  55 N55          -19.6717     1.4758    -0.3601 N.am    
  56 C56          -20.7036     1.2957    -1.3843 C.3     
  57 C57          -21.0613    -0.1879    -1.4925 C.3     
  58 C58          -19.8475    -0.9696    -1.9990 C.3     
  59 C59          -20.2053    -2.4532    -2.1072 C.3     
  60 N60          -19.0430    -3.2017    -2.5921 N.pl3   
  61 C61          -19.1269    -4.5624    -2.7696 C.2     
  62 N62          -20.2405    -5.1866    -2.5064 N.2     
  63 N63          -18.0362    -5.2648    -3.2247 N.pl3   
  64 C64          -25.4231     2.2113    -2.0788 C.2     
  65 O65          -25.3023     1.2281    -2.7786 O.2     
  66 N66          -23.0164     2.0662    -1.8035 N.am    
  67 C67          -24.2102     2.8307    -1.4337 C.3     
  68 C68          -24.0593     4.2757    -1.9135 C.3     
  69 C69          -22.9208     4.9332    -1.1769 C.2     
  70 C70          -21.8580     5.5383    -1.7407 C.2     
  71 N71          -21.0735     5.9960    -0.7166 N.pl3   
  72 C72          -21.6847     5.6544     0.4382 C.2     
  73 N73          -22.7914     5.0235     0.1551 N.2     
  74 C74          -28.8959     3.1927    -2.6615 C.2     
  75 O75          -28.6965     4.3286    -2.2860 O.2     
  76 N76          -26.6422     2.7500    -1.8782 N.am    
  77 C77          -27.8213     2.1478    -2.5053 C.3     
  78 C78          -28.3413     1.0091    -1.6257 C.3     
  79 C79          -27.2979    -0.1086    -1.5688 C.3     
  80 C80          -27.8179    -1.2473    -0.6892 C.3     
  81 N81          -26.8188    -2.3175    -0.6347 N.pl3   
  82 C82          -27.0663    -3.4521     0.1013 C.2     
  83 N83          -26.1775    -4.4042     0.1498 N.2     
  84 N84          -28.2513    -3.5824     0.7861 N.pl3   
  85 C85          -32.4723     3.2108    -3.4179 C.2     
  86 O86          -32.5532     2.0037    -3.3332 O.2     
  87 N87          -30.0786     2.8650    -3.2186 N.am    
  88 C88          -31.1233     3.8808    -3.3704 C.3     
  89 C89          -30.8940     4.6582    -4.6681 C.3     
  90 C90          -29.5817     5.4387    -4.5700 C.3     
  91 C91          -29.3524     6.2160    -5.8677 C.3     
  92 N92          -28.0959     6.9634    -5.7738 N.pl3   
  93 C93          -27.6781     7.7409    -6.8278 C.2     
  94 N94          -28.3999     7.8132    -7.9107 N.2     
  95 N95          -26.4989     8.4423    -6.7397 N.pl3   
  96 C96          -35.8732     4.1830    -4.3408 C.2     
  97 O97          -35.5071     5.2501    -4.7861 O.2     
  98 N98          -33.5890     3.9531    -3.5544 N.am    
  99 C99          -34.9004     3.3017    -3.6006 C.3     
 100 C100         -35.4052     3.0700    -2.1749 C.3     
 101 C101         -34.4846     2.0765    -1.4632 C.3     
 102 C102         -34.9150     1.9396    -0.0014 C.3     
 103 C103         -34.5760     0.7132    -2.1516 C.3     
 104 C104         -39.5031     4.3697    -4.6114 C.2     
 105 O105         -39.7435     3.2687    -4.1631 O.2     
 106 N106         -37.1501     3.7854    -4.5081 N.am    
 107 C107         -38.1235     4.6886    -5.1269 C.3     
 108 C108         -38.0924     4.5085    -6.6460 C.3     
 109 C109         -38.9833     5.5647    -7.3031 C.3     
 110 C110         -38.3895     6.9541    -7.0622 C.3     
 111 C111         -39.0648     5.2987    -8.8076 C.3     
 112 C112         -42.8074     5.9039    -4.9137 C.2     
 113 O113         -42.3993     6.7681    -5.6604 O.2     
 114 N114         -40.4699     5.3080    -4.6484 N.am    
 115 C115         -41.8356     4.9691    -4.2407 C.3     
 116 C116         -41.9636     5.1071    -2.7223 C.3     
 117 O117         -41.7871     6.4759    -2.3518 O.3     
 118 C118         -45.2002     7.9518    -4.5285 C.2     
 119 O119         -44.5657     8.0802    -3.5083 O.2     
 120 N120         -44.1299     5.7796    -4.6858 N.am    
 121 C121         -45.0746     6.6883    -5.3401 C.3     
 122 C122         -46.4429     6.0119    -5.4458 C.3     
 123 C123         -47.3954     6.9091    -6.2386 C.3     
 124 C124         -48.7237     6.1804    -6.4516 C.3     
 125 C125         -47.0080     5.7821    -4.0427 C.3     
 126 O126         -46.0169     8.9348    -4.9390 O.3     
 127 C127           2.6439    -1.4263     4.1257 C.2     
 128 O128           2.8291    -0.3105     4.5634 O.2     
 129 C129          20.0050    -5.6111     9.8060 C.3     
 130 C130          18.9023    -4.5557     9.7018 C.3     
 131 C131          17.6800    -5.1618     9.0092 C.3     
 132 C132          16.5773    -4.1064     8.9050 C.3     
 133 C133          15.3550    -4.7125     8.2124 C.3     
 134 C134          14.2523    -3.6571     8.1082 C.3     
 135 C135          13.0300    -4.2632     7.4156 C.3     
 136 C136          11.9273    -3.2077     7.3114 C.3     
 137 C137          10.7050    -3.8138     6.6188 C.3     
 138 C138           9.6023    -2.7584     6.5146 C.3     
 139 C139           8.3801    -3.3645     5.8219 C.3     
 140 C140           7.2773    -2.3091     5.7178 C.3     
 141 C141           6.0551    -2.9152     5.0251 C.3     
 142 C142           4.9523    -1.8598     4.9209 C.3     
 143 C143           3.7301    -2.4659     4.2283 C.3     
 144 H144           1.3185    -2.6290     3.1974 H       
 145 H145           0.4355    -0.0863     4.3299 H       
 146 H146           0.6985    -0.5258     1.3222 H       
 147 H147          -0.1978     0.8165     2.0725 H       
 148 H148           3.0142     0.3264     0.5543 H       
 149 H149           4.7646     1.9318     1.5862 H       
 150 H150           3.9308     2.9204     3.7924 H       
 151 H151          -2.0010     0.2964     3.2391 H       
 152 H152          -3.2551    -2.2614     2.5965 H       
 153 H153          -3.9735    -0.7232     5.1332 H       
 154 H154          -4.8403    -2.1429     4.4995 H       
 155 H155          -3.1636    -2.3072     5.0740 H       
 156 H156          -5.8915    -1.7034     2.5697 H       
 157 H157          -6.3460     1.0904     1.8516 H       
 158 H158          -6.5424    -1.1686    -0.1897 H       
 159 H159          -7.1855     0.4730    -0.4345 H       
 160 H160          -4.2782    -1.3832    -1.4166 H       
 161 H161          -2.2479     0.1956    -1.7188 H       
 162 H162          -2.6668     2.4671    -0.6212 H       
 163 H163          -8.8559     1.1086     0.8705 H       
 164 H164         -10.4442    -1.0315     2.0641 H       
 165 H165         -10.5497     1.8405     3.0885 H       
 166 H166         -11.7522     0.5858     3.4732 H       
 167 H167          -8.9103     2.0793     5.0717 H       
 168 H168          -7.7666     0.3875     6.6641 H       
 169 H169          -8.5272    -2.0052     6.1780 H       
 170 H170         -12.9866    -0.1768     1.8022 H       
 171 H171         -13.2485     1.5830    -0.5134 H       
 172 H172         -14.0482    -1.3598    -0.6455 H       
 173 H173         -14.3967    -0.1327    -1.8869 H       
 174 H174         -12.7139    -0.6051    -1.5503 H       
 175 H175         -15.8565     1.4090    -1.1695 H       
 176 H176         -17.4718     0.7900     1.1833 H       
 177 H177         -17.1359     3.6380     0.1415 H       
 178 H178         -18.3945     3.1244     1.2906 H       
 179 H179         -14.8028     3.7059     0.8024 H       
 180 H180         -13.2025     3.9482     2.6569 H       
 181 H181         -13.7240     4.3615     5.5806 H       
 182 H182         -16.2247     2.7158     5.4160 H       
 183 H183         -17.8216     2.4851     3.5572 H       
 184 H184         -19.9242     1.7085     0.5471 H       
 185 H185         -20.3283     1.6499    -2.3444 H       
 186 H186         -21.3522    -0.5640    -0.5116 H       
 187 H187         -21.8901    -0.3119    -2.1896 H       
 188 H188         -19.5566    -0.5935    -2.9798 H       
 189 H189         -19.0188    -0.8456    -1.3019 H       
 190 H190         -20.4961    -2.8293    -1.1263 H       
 191 H191         -21.0340    -2.5773    -2.8042 H       
 192 H192         -18.2143    -2.7372    -2.7880 H       
 193 H193         -20.2997    -6.1467    -2.6317 H       
 194 H194         -17.2075    -4.8004    -3.4206 H       
 195 H195         -18.0954    -6.2249    -3.3500 H       
 196 H196         -23.0068     1.5486    -2.6238 H       
 197 H197         -24.3286     2.8181    -0.3503 H       
 198 H198         -23.8524     4.2835    -2.9836 H       
 199 H199         -24.9822     4.8217    -1.7178 H       
 200 H200         -21.6621     5.6422    -2.7977 H       
 201 H201         -20.2351     6.4760    -0.8040 H       
 202 H202         -21.3200     5.8711     1.4314 H       
 203 H203         -26.7388     3.5363    -1.3185 H       
 204 H204         -27.5509     1.7553    -3.4856 H       
 205 H205         -28.5278     1.3835    -0.6192 H       
 206 H206         -29.2684     0.6195    -2.0461 H       
 207 H207         -27.1113    -0.4830    -2.5753 H       
 208 H208         -26.3708     0.2810    -1.1484 H       
 209 H209         -28.0044    -0.8729     0.3173 H       
 210 H210         -28.7450    -1.6369    -1.1096 H       
 211 H211         -25.9828    -2.2256    -1.1178 H       
 212 H212         -26.3521    -5.2047     0.6690 H       
 213 H213         -28.9128    -2.8738     0.7500 H       
 214 H214         -28.4259    -4.3829     1.3053 H       
 215 H215         -30.2381     1.9566    -3.5189 H       
 216 H216         -31.0882     4.5674    -2.5246 H       
 217 H217         -30.8406     3.9613    -5.5045 H       
 218 H218         -31.7190     5.3528    -4.8261 H       
 219 H219         -29.6351     6.1356    -3.7336 H       
 220 H220         -28.7568     4.7440    -4.4120 H       
 221 H221         -29.2990     5.5191    -6.7041 H       
 222 H222         -30.1774     6.9107    -6.0257 H       
 223 H223         -27.5587     6.9096    -4.9679 H       
 224 H224         -28.1052     8.3618    -8.6544 H       
 225 H225         -25.9617     8.3885    -5.9338 H       
 226 H226         -26.2041     8.9909    -7.4833 H       
 227 H227         -33.5243     4.9185    -3.6222 H       
 228 H228         -34.8129     2.3448    -4.1151 H       
 229 H229         -35.4083     4.0154    -1.6324 H       
 230 H230         -36.4175     2.6672    -2.2089 H       
 231 H231         -33.4571     2.4376    -1.5071 H       
 232 H232         -35.9426     1.5786     0.0426 H       
 233 H233         -34.2592     1.2319     0.5057 H       
 234 H234         -34.8499     2.9109     0.4891 H       
 235 H235         -34.2694     0.8107    -3.1930 H       
 236 H236         -33.9202     0.0055    -1.6445 H       
 237 H237         -35.6036     0.3521    -2.1076 H       
 238 H238         -37.4245     2.9011    -4.2188 H       
 239 H239         -37.8719     5.7195    -4.8781 H       
 240 H240         -37.0694     4.6220    -7.0045 H       
 241 H241         -38.4588     3.5142    -6.9016 H       
 242 H242         -39.9828     5.5169    -6.8709 H       
 243 H243         -37.4154     7.0219    -7.5466 H       
 244 H244         -39.0552     7.7107    -7.4776 H       
 245 H245         -38.2750     7.1196    -5.9910 H       
 246 H246         -39.4878     4.3089    -8.9791 H       
 247 H247         -39.6995     6.0512    -9.2757 H       
 248 H248         -38.0653     5.3466    -9.2397 H       
 249 H249         -40.2615     6.2077    -4.9451 H       
 250 H250         -42.0577     3.9426    -4.5322 H       
 251 H251         -42.9518     4.7704    -2.4089 H       
 252 H252         -41.2012     4.4980    -2.2366 H       
 253 H253         -41.8555     6.6380    -1.4009 H       
 254 H254         -44.4562     5.0884    -4.0886 H       
 255 H255         -44.7118     6.9323    -6.3385 H       
 256 H256         -46.3365     5.0545    -5.9559 H       
 257 H257         -47.5715     7.8312    -5.6846 H       
 258 H258         -46.9515     7.1455    -7.2057 H       
 259 H259         -49.1676     5.9441    -5.4845 H       
 260 H260         -49.4023     6.8196    -7.0164 H       
 261 H261         -48.5476     5.2584    -7.0056 H       
 262 H262         -47.1144     6.7395    -3.5325 H       
 263 H263         -47.9828     5.3003    -4.1180 H       
 264 H264         -46.3294     5.1429    -3.4779 H       
 265 H265         -46.0643     9.7262    -4.3854 H       
 266 H266          19.6423    -6.4596    10.3861 H       
 267 H267          20.2827    -5.9463     8.8067 H       
 268 H268          20.8758    -5.1793    10.2994 H       
 269 H269          18.6246    -4.2205    10.7011 H       
 270 H270          19.2650    -3.7072     9.1217 H       
 271 H271          17.9577    -5.4970     8.0099 H       
 272 H272          17.3173    -6.0103     9.5893 H       
 273 H273          16.2996    -3.7712     9.9043 H       
 274 H274          16.9400    -3.2579     8.3249 H       
 275 H275          15.6327    -5.0477     7.2131 H       
 276 H276          14.9923    -5.5610     8.7925 H       
 277 H277          13.9746    -3.3219     9.1075 H       
 278 H278          14.6151    -2.8085     7.5281 H       
 279 H279          13.3077    -4.5984     6.4162 H       
 280 H280          12.6673    -5.1117     7.9957 H       
 281 H281          11.6496    -2.8725     8.3107 H       
 282 H282          12.2901    -2.3592     6.7313 H       
 283 H283          10.9827    -4.1490     5.6194 H       
 284 H284          10.3423    -4.6623     7.1989 H       
 285 H285           9.3246    -2.4232     7.5139 H       
 286 H286           9.9651    -1.9099     5.9345 H       
 287 H287           8.6578    -3.6997     4.8226 H       
 288 H288           8.0173    -4.2130     6.4021 H       
 289 H289           6.9996    -1.9739     6.7171 H       
 290 H290           7.6401    -1.4606     5.1377 H       
 291 H291           6.3328    -3.2504     4.0258 H       
 292 H292           5.6923    -3.7637     5.6052 H       
 293 H293           4.6746    -1.5246     5.9203 H       
 294 H294           5.3151    -1.0113     4.3408 H       
 295 H295           3.3673    -3.3144     4.8084 H       
 296 H296           4.0078    -2.8011     3.2290 H       
@<TRIPOS>BOND
   1    1    2 2
   2    1    4 1
   3    1   13 am
   4    3  127 am
   5    3    4 1
   6    3  144 1
   7    4    5 1
   8    4  145 1
   9    5    6 1
  10    5  146 1
  11    5  147 1
  12    6    7 2
  13    6   10 1
  14    7    8 1
  15    7  148 1
  16    8    9 1
  17    8  149 1
  18    9   10 2
  19    9  150 1
  20   11   12 2
  21   11   14 1
  22   11   18 am
  23   13   14 1
  24   13  151 1
  25   14   15 1
  26   14  152 1
  27   15  153 1
  28   15  154 1
  29   15  155 1
  30   16   17 2
  31   16   19 1
  32   16   28 am
  33   18   19 1
  34   18  156 1
  35   19   20 1
  36   19  157 1
  37   20   21 1
  38   20  158 1
  39   20  159 1
  40   21   22 2
  41   21   25 1
  42   22   23 1
  43   22  160 1
  44   23   24 1
  45   23  161 1
  46   24   25 2
  47   24  162 1
  48   26   27 2
  49   26   29 1
  50   26   38 am
  51   28   29 1
  52   28  163 1
  53   29   30 1
  54   29  164 1
  55   30   31 1
  56   30  165 1
  57   30  166 1
  58   31   32 2
  59   31   35 1
  60   32   33 1
  61   32  167 1
  62   33   34 1
  63   33  168 1
  64   34   35 2
  65   34  169 1
  66   36   37 2
  67   36   39 1
  68   36   43 am
  69   38   39 1
  70   38  170 1
  71   39   40 1
  72   39  171 1
  73   40  172 1
  74   40  173 1
  75   40  174 1
  76   41   42 2
  77   41   44 1
  78   41   55 am
  79   43   44 1
  80   43  175 1
  81   44   45 1
  82   44  176 1
  83   45   46 1
  84   45  177 1
  85   45  178 1
  86   46   47 ar
  87   46   52 ar
  88   47   48 ar
  89   47  179 1
  90   48   49 ar
  91   48  180 1
  92   49   50 1
  93   49   51 ar
  94   50  181 1
  95   51   52 ar
  96   51  182 1
  97   52  183 1
  98   53   54 2
  99   53   56 1
 100   53   66 am
 101   55   56 1
 102   55  184 1
 103   56   57 1
 104   56  185 1
 105   57   58 1
 106   57  186 1
 107   57  187 1
 108   58   59 1
 109   58  188 1
 110   58  189 1
 111   59   60 1
 112   59  190 1
 113   59  191 1
 114   60   61 1
 115   60  192 1
 116   61   62 2
 117   61   63 1
 118   62  193 1
 119   63  194 1
 120   63  195 1
 121   64   65 2
 122   64   67 1
 123   64   76 am
 124   66   67 1
 125   66  196 1
 126   67   68 1
 127   67  197 1
 128   68   69 1
 129   68  198 1
 130   68  199 1
 131   69   70 2
 132   69   73 1
 133   70   71 1
 134   70  200 1
 135   71   72 1
 136   71  201 1
 137   72   73 2
 138   72  202 1
 139   74   75 2
 140   74   77 1
 141   74   87 am
 142   76   77 1
 143   76  203 1
 144   77   78 1
 145   77  204 1
 146   78   79 1
 147   78  205 1
 148   78  206 1
 149   79   80 1
 150   79  207 1
 151   79  208 1
 152   80   81 1
 153   80  209 1
 154   80  210 1
 155   81   82 1
 156   81  211 1
 157   82   83 2
 158   82   84 1
 159   83  212 1
 160   84  213 1
 161   84  214 1
 162   85   86 2
 163   85   88 1
 164   85   98 am
 165   87   88 1
 166   87  215 1
 167   88   89 1
 168   88  216 1
 169   89   90 1
 170   89  217 1
 171   89  218 1
 172   90   91 1
 173   90  219 1
 174   90  220 1
 175   91   92 1
 176   91  221 1
 177   91  222 1
 178   92   93 1
 179   92  223 1
 180   93   94 2
 181   93   95 1
 182   94  224 1
 183   95  225 1
 184   95  226 1
 185   96   97 2
 186   96   99 1
 187   96  106 am
 188   98   99 1
 189   98  227 1
 190   99  100 1
 191   99  228 1
 192  100  101 1
 193  100  229 1
 194  100  230 1
 195  101  102 1
 196  101  103 1
 197  101  231 1
 198  102  232 1
 199  102  233 1
 200  102  234 1
 201  103  235 1
 202  103  236 1
 203  103  237 1
 204  104  105 2
 205  104  107 1
 206  104  114 am
 207  106  107 1
 208  106  238 1
 209  107  108 1
 210  107  239 1
 211  108  109 1
 212  108  240 1
 213  108  241 1
 214  109  110 1
 215  109  111 1
 216  109  242 1
 217  110  243 1
 218  110  244 1
 219  110  245 1
 220  111  246 1
 221  111  247 1
 222  111  248 1
 223  112  113 2
 224  112  115 1
 225  112  120 am
 226  114  115 1
 227  114  249 1
 228  115  116 1
 229  115  250 1
 230  116  117 1
 231  116  251 1
 232  116  252 1
 233  117  253 1
 234  118  119 2
 235  118  121 1
 236  118  126 1
 237  120  121 1
 238  120  254 1
 239  121  122 1
 240  121  255 1
 241  122  123 1
 242  122  125 1
 243  122  256 1
 244  123  124 1
 245  123  257 1
 246  123  258 1
 247  124  259 1
 248  124  260 1
 249  124  261 1
 250  125  262 1
 251  125  263 1
 252  125  264 1
 253  126  265 1
 254  127  128 2
 255  127  143 1
 256  129  130 1
 257  129  266 1
 258  129  267 1
 259  129  268 1
 260  130  131 1
 261  130  269 1
 262  130  270 1
 263  131  132 1
 264  131  271 1
 265  131  272 1
 266  132  133 1
 267  132  273 1
 268  132  274 1
 269  133  134 1
 270  133  275 1
 271  133  276 1
 272  134  135 1
 273  134  277 1
 274  134  278 1
 275  135  136 1
 276  135  279 1
 277  135  280 1
 278  136  137 1
 279  136  281 1
 280  136  282 1
 281  137  138 1
 282  137  283 1
 283  137  284 1
 284  138  139 1
 285  138  285 1
 286  138  286 1
 287  139  140 1
 288  139  287 1
 289  139  288 1
 290  140  141 1
 291  140  289 1
 292  140  290 1
 293  141  142 1
 294  141  291 1
 295  141  292 1
 296  142  143 1
 297  142  293 1
 298  142  294 1
 299  143  295 1
 300  143  296 1

#	End of record

