#	Name: ASD05303004
#	Creating user name:	WinNT
#	Creation time:	15. 06. 2019 20:58

#	Modifying user name:	WinNT
#	Modification time:	15. 06. 2019 20:58

#	Program:	/corina/corina34_cracker 3.40 0067  02.08.2006

@<TRIPOS>MOLECULE
ASD05303004
  28   30    0    0    0
SMALL
NO_CHARGES


@<TRIPOS>ATOM
   1 C1             0.0273     1.3488     0.4858 C.ar    
   2 C2             0.0498     0.0958    -0.0973 C.ar    
   3 C3             1.2193    -0.6437    -0.1052 C.ar    
   4 C4             2.3653    -0.1254     0.4717 C.ar    
   5 C5             2.3471     1.1387     1.0574 C.ar    
   6 C6             1.1706     1.8717     1.0621 C.ar    
   7 O7             3.4706     1.6549     1.6174 O.3     
   8 N8             3.5599    -0.8680     0.4793 N.am    
   9 C9             4.5230     0.8414     1.8872 C.ar    
  10 C10            4.5949    -0.4319     1.3262 C.ar    
  11 C11            5.6720    -1.2559     1.6013 C.ar    
  12 C12            6.6807    -0.8135     2.4390 C.ar    
  13 C13            6.6115     0.4483     2.9990 C.ar    
  14 C14            5.5375     1.2756     2.7261 C.ar    
  15 C15            3.7075    -1.9596    -0.2974 C.2     
  16 O16            2.7575    -2.4021    -0.9086 O.2     
  17 C17            5.0525    -2.6304    -0.4065 C.3     
  18 H18           -0.8866     1.9243     0.4874 H       
  19 H19           -0.8461    -0.3064    -0.5467 H       
  20 H20            1.2375    -1.6230    -0.5602 H       
  21 H21            1.1469     2.8517     1.5153 H       
  22 H22            5.7251    -2.2419     1.1637 H       
  23 H23            7.5223    -1.4546     2.6556 H       
  24 H24            7.4000     0.7896     3.6534 H       
  25 H25            5.4892     2.2605     3.1667 H       
  26 H26            5.8400    -1.8816    -0.3217 H       
  27 H27            5.1594    -3.3624     0.3940 H       
  28 H28            5.1309    -3.1325    -1.3708 H       
@<TRIPOS>BOND
   1    1    2 ar
   2    1    6 ar
   3    1   18 1
   4    2    3 ar
   5    2   19 1
   6    3    4 ar
   7    3   20 1
   8    4    5 ar
   9    4    8 1
  10    5    6 ar
  11    5    7 1
  12    6   21 1
  13    7    9 1
  14    8   10 1
  15    8   15 am
  16    9   10 ar
  17    9   14 ar
  18   10   11 ar
  19   11   12 ar
  20   11   22 1
  21   12   13 ar
  22   12   23 1
  23   13   14 ar
  24   13   24 1
  25   14   25 1
  26   15   16 2
  27   15   17 1
  28   17   26 1
  29   17   27 1
  30   17   28 1

#	End of record

