#	Name: ASD02500281
#	Creating user name:	WinNT
#	Creation time:	15. 06. 2019 20:22

#	Modifying user name:	WinNT
#	Modification time:	15. 06. 2019 20:22

#	Program:	/corina/corina34_cracker 3.40 0067  02.08.2006

@<TRIPOS>MOLECULE
ASD02500281
  67   71    0    0    0
SMALL
NO_CHARGES


@<TRIPOS>ATOM
   1 N1            -3.2655     5.6989    -0.3203 N.ar    
   2 C2            -4.3491     6.3740    -0.6172 C.ar    
   3 C3            -5.5227     6.2388     0.1215 C.ar    
   4 C4            -5.5633     5.3843     1.1862 C.ar    
   5 C5            -4.3978     4.6606     1.5018 C.ar    
   6 C6            -4.3637     3.7644     2.5819 C.ar    
   7 C7            -3.2166     3.0833     2.8551 C.ar    
   8 C8            -2.0753     3.2641     2.0770 C.ar    
   9 C9            -2.0732     4.1249     1.0227 C.ar    
  10 C10           -3.2381     4.8462     0.7089 C.ar    
  11 S11           -0.6155     4.3350     0.0554 S.o2    
  12 O12           -0.3878     5.7351    -0.0283 O.2     
  13 O13            0.3431     3.4211     0.5705 O.2     
  14 N14           -0.9686     3.8260    -1.4803 N.am    
  15 C15           -1.2083     2.4765    -1.7290 C.ar    
  16 C16           -0.8467     1.9191    -2.9573 C.ar    
  17 C17           -1.0838     0.5824    -3.2044 C.ar    
  18 C18           -1.6861    -0.2112    -2.2230 C.ar    
  19 C19           -2.0457     0.3520    -0.9960 C.ar    
  20 C20           -1.8017     1.6857    -0.7521 C.ar    
  21 C21           -1.9419    -1.6407    -2.4830 C.2     
  22 O22           -2.3701    -1.9948    -3.5646 O.2     
  23 N23           -1.7010    -2.5541    -1.5218 N.am    
  24 C24           -1.8638    -3.9888    -1.7956 C.3     
  25 C25           -0.5507    -4.7048    -1.4556 C.3     
  26 N26           -0.1200    -4.2840    -0.1150 N.am    
  27 C27            0.0429    -2.8493     0.1589 C.3     
  28 C28           -1.2648    -2.1337    -0.1828 C.3     
  29 C29            0.1210    -5.1975     0.8463 C.2     
  30 C30            0.6622    -4.7705     2.1505 C.ar    
  31 C31            1.8240    -3.9927     2.2198 C.ar    
  32 C32            2.2906    -3.6184     3.4671 C.ar    
  33 C33            1.6033    -4.0190     4.5991 C.ar    
  34 N34            0.5104    -4.7519     4.5107 N.ar    
  35 C35            0.0186    -5.1318     3.3435 C.ar    
  36 O36           -0.1076    -6.3735     0.6385 O.2     
  37 O37           -1.1099    -5.8792     3.2997 O.3     
  38 C38           -1.7160    -6.2128     4.5501 C.3     
  39 O39           -0.2614     2.6937    -3.9100 O.3     
  40 C40            0.0820     2.0574    -5.1426 C.3     
  41 H41           -4.3317     7.0535    -1.4566 H       
  42 H42           -6.3994     6.8093    -0.1473 H       
  43 H43           -6.4644     5.2674     1.7700 H       
  44 H44           -5.2419     3.6163     3.1928 H       
  45 H45           -3.1913     2.3940     3.6862 H       
  46 H46           -1.1775     2.7127     2.3144 H       
  47 H47           -1.0086     4.4676    -2.2067 H       
  48 H48           -0.8050     0.1500    -4.1540 H       
  49 H49           -2.5110    -0.2594    -0.2370 H       
  50 H50           -2.0762     2.1187     0.1985 H       
  51 H51           -2.6691    -4.3897    -1.1800 H       
  52 H52           -2.0982    -4.1357    -2.8499 H       
  53 H53           -0.7084    -5.7832    -1.4674 H       
  54 H54            0.2123    -4.4360    -2.1861 H       
  55 H55            0.2773    -2.7024     1.2132 H       
  56 H56            0.8481    -2.4485    -0.4568 H       
  57 H57           -1.1036    -1.0557    -0.1723 H       
  58 H58           -2.0264    -2.3994     0.5503 H       
  59 H59            2.3434    -3.6926     1.3217 H       
  60 H60            3.1843    -3.0187     3.5567 H       
  61 H61            1.9684    -3.7267     5.5725 H       
  62 H62           -1.0108    -6.7824     5.1553 H       
  63 H63           -1.9905    -5.2984     5.0761 H       
  64 H64           -2.6091    -6.8119     4.3725 H       
  65 H65            0.5397     2.7856    -5.8121 H       
  66 H66            0.7862     1.2481    -4.9498 H       
  67 H67           -0.8181     1.6533    -5.6059 H       
@<TRIPOS>BOND
   1    1    2 ar
   2    1   10 ar
   3    2    3 ar
   4    2   41 1
   5    3    4 ar
   6    3   42 1
   7    4    5 ar
   8    4   43 1
   9    5    6 ar
  10    5   10 ar
  11    6    7 ar
  12    6   44 1
  13    7    8 ar
  14    7   45 1
  15    8    9 ar
  16    8   46 1
  17    9   10 ar
  18    9   11 1
  19   11   12 2
  20   11   13 2
  21   11   14 am
  22   14   15 1
  23   14   47 1
  24   15   16 ar
  25   15   20 ar
  26   16   17 ar
  27   16   39 1
  28   17   18 ar
  29   17   48 1
  30   18   19 ar
  31   18   21 1
  32   19   20 ar
  33   19   49 1
  34   20   50 1
  35   21   22 2
  36   21   23 am
  37   23   24 1
  38   23   28 1
  39   24   25 1
  40   24   51 1
  41   24   52 1
  42   25   26 1
  43   25   53 1
  44   25   54 1
  45   26   27 1
  46   26   29 am
  47   27   28 1
  48   27   55 1
  49   27   56 1
  50   28   57 1
  51   28   58 1
  52   29   30 1
  53   29   36 2
  54   30   31 ar
  55   30   35 ar
  56   31   32 ar
  57   31   59 1
  58   32   33 ar
  59   32   60 1
  60   33   34 ar
  61   33   61 1
  62   34   35 ar
  63   35   37 1
  64   37   38 1
  65   38   62 1
  66   38   63 1
  67   38   64 1
  68   39   40 1
  69   40   65 1
  70   40   66 1
  71   40   67 1

#	End of record

