#	Name: ASD06170005
#	Creating user name:	WinNT
#	Creation time:	15. 06. 2019 21:05

#	Modifying user name:	WinNT
#	Modification time:	15. 06. 2019 21:05

#	Program:	/corina/corina34_cracker 3.40 0067  02.08.2006

@<TRIPOS>MOLECULE
ASD06170005
  62   66    0    0    0
SMALL
NO_CHARGES


@<TRIPOS>ATOM
   1 N1             0.2838    -1.6539    -2.1558 N.pl3   
   2 N2            -0.0658    -1.0558    -0.9414 N.am    
   3 C3             1.0650    -0.7114    -0.2910 C.2     
   4 C4             2.1847    -1.1204    -1.1538 C.2     
   5 C5             1.6242    -1.6911    -2.2798 C.2     
   6 C6             3.6159    -0.9536    -0.8734 C.2     
   7 O7             4.4426    -1.3391    -1.6789 O.2     
   8 N8             4.0143    -0.3737     0.2761 N.am    
   9 C9            -1.3693    -0.8488    -0.4785 C.ar    
  10 C10           -1.7126    -1.2084     0.8183 C.ar    
  11 C11           -3.0005    -1.0022     1.2725 C.ar    
  12 C12           -3.9479    -0.4389     0.4374 C.ar    
  13 C13           -3.6093    -0.0798    -0.8544 C.ar    
  14 C14           -2.3216    -0.2780    -1.3128 C.ar    
  15 O15            1.1436    -0.1689     0.7954 O.2     
  16 C16           -0.6670    -2.1693    -3.1440 C.3     
  17 C17            5.3760    -0.3198     0.5978 C.ar    
  18 C18            6.2205    -1.3557     0.2201 C.ar    
  19 C19            7.5646    -1.3014     0.5377 C.ar    
  20 C20            8.0698    -0.2102     1.2347 C.ar    
  21 C21            7.2259     0.8233     1.6112 C.ar    
  22 C22            5.8834     0.7719     1.2894 C.ar    
  23 O23            9.3922    -0.1565     1.5478 O.3     
  24 N24           12.0027     1.1169    -1.3801 N.ar    
  25 C25           10.7288     0.9602    -1.6543 C.ar    
  26 C26            9.8203     0.5329    -0.6945 C.ar    
  27 C27           10.2563     0.2614     0.5907 C.ar    
  28 C28           11.6302     0.4337     0.8747 C.ar    
  29 C29           12.1461     0.1779     2.1536 C.ar    
  30 C30           13.4738     0.3527     2.3957 C.ar    
  31 C31           14.3345     0.7856     1.3829 C.ar    
  32 C32           13.8585     1.0454     0.1176 C.ar    
  33 C33           12.4930     0.8727    -0.1590 C.ar    
  34 O34           15.6558     0.9523     1.6504 O.3     
  35 C35           16.0891     0.6671     2.9819 C.3     
  36 F36            8.3869    -2.3087     0.1712 F       
  37 C37            2.3846    -2.2603    -3.4497 C.3     
  38 N38            2.1471    -3.7077    -3.5306 N.3     
  39 H39            3.3577     0.0064     0.8805 H       
  40 H40           -0.9734    -1.6490     1.4708 H       
  41 H41           -3.2681    -1.2816     2.2808 H       
  42 H42           -4.9545    -0.2793     0.7947 H       
  43 H43           -4.3515     0.3600    -1.5041 H       
  44 H44           -2.0568     0.0064    -2.3205 H       
  45 H45           -1.6819    -2.0659    -2.7601 H       
  46 H46           -0.5699    -1.6041    -4.0709 H       
  47 H47           -0.4567    -3.2214    -3.3362 H       
  48 H48            5.8271    -2.2035    -0.3212 H       
  49 H49            7.6190     1.6710     2.1528 H       
  50 H50            5.2275     1.5794     1.5795 H       
  51 H51           10.3772     1.1691    -2.6539 H       
  52 H52            8.7777     0.4138    -0.9498 H       
  53 H53           11.4912    -0.1566     2.9445 H       
  54 H54           13.8671     0.1550     3.3820 H       
  55 H55           14.5317     1.3801    -0.6578 H       
  56 H56           15.5643     1.3173     3.6819 H       
  57 H57           15.8712    -0.3740     3.2198 H       
  58 H58           17.1624     0.8406     3.0597 H       
  59 H59            2.0453    -1.7845    -4.3698 H       
  60 H60            3.4502    -2.0739    -3.3158 H       
  61 H61            1.1602    -3.9094    -3.5902 H       
  62 H62            2.6466    -4.1133    -4.3078 H       
@<TRIPOS>BOND
   1    1    2 1
   2    1    5 1
   3    1   16 1
   4    2    3 am
   5    2    9 1
   6    3    4 1
   7    3   15 2
   8    4    5 2
   9    4    6 1
  10    5   37 1
  11    6    7 2
  12    6    8 am
  13    8   17 1
  14    8   39 1
  15    9   10 ar
  16    9   14 ar
  17   10   11 ar
  18   10   40 1
  19   11   12 ar
  20   11   41 1
  21   12   13 ar
  22   12   42 1
  23   13   14 ar
  24   13   43 1
  25   14   44 1
  26   16   45 1
  27   16   46 1
  28   16   47 1
  29   17   18 ar
  30   17   22 ar
  31   18   19 ar
  32   18   48 1
  33   19   20 ar
  34   19   36 1
  35   20   21 ar
  36   20   23 1
  37   21   22 ar
  38   21   49 1
  39   22   50 1
  40   23   27 1
  41   24   25 ar
  42   24   33 ar
  43   25   26 ar
  44   25   51 1
  45   26   27 ar
  46   26   52 1
  47   27   28 ar
  48   28   29 ar
  49   28   33 ar
  50   29   30 ar
  51   29   53 1
  52   30   31 ar
  53   30   54 1
  54   31   32 ar
  55   31   34 1
  56   32   33 ar
  57   32   55 1
  58   34   35 1
  59   35   56 1
  60   35   57 1
  61   35   58 1
  62   37   38 1
  63   37   59 1
  64   37   60 1
  65   38   61 1
  66   38   62 1

#	End of record

