#	Name: ASD02508100
#	Creating user name:	WinNT
#	Creation time:	15. 06. 2019 20:23

#	Modifying user name:	WinNT
#	Modification time:	15. 06. 2019 20:23

#	Program:	/corina/corina34_cracker 3.40 0067  02.08.2006

@<TRIPOS>MOLECULE
ASD02508100
  46   48    0    0    0
SMALL
NO_CHARGES


@<TRIPOS>ATOM
   1 C1             1.1133     2.3662    -0.0905 C.ar    
   2 C2             0.7234     1.0408     0.0217 C.ar    
   3 C3             2.4650     2.6923    -0.1974 C.ar    
   4 C4             3.4186     1.6868    -0.1911 C.ar    
   5 C5             3.0242     0.3617    -0.0784 C.ar    
   6 C6             1.6756     0.0410     0.0274 C.ar    
   7 N7             0.4083     3.5717    -0.1311 N.am    
   8 C8             1.3118     4.5645    -0.2514 C.2     
   9 O9             2.5475     4.0421    -0.2925 O.3     
  10 N10            3.9858    -0.6544    -0.0718 N.am    
  11 S11            3.9030    -1.8654     1.0546 S.o2    
  12 C12            4.0712    -1.1153     2.6401 C.ar    
  13 C13            2.9443    -0.8379     3.4001 C.ar    
  14 O14            1.0480     5.7498    -0.3168 O.2     
  15 O15            2.5803    -2.3811     0.9930 O.2     
  16 O16            5.0599    -2.6687     0.8660 O.2     
  17 C17            5.3266    -0.8079     3.1304 C.ar    
  18 C18            5.4587    -0.2191     4.3760 C.ar    
  19 C19            4.3364     0.0622     5.1322 C.ar    
  20 C20            3.0799    -0.2477     4.6482 C.ar    
  21 C21           -1.0465     3.7279    -0.0570 C.3     
  22 C22           -1.4064     4.5821     1.1603 C.3     
  23 C23           -1.5511     4.4135    -1.3283 C.3     
  24 C24           -1.3027     3.5025    -2.5321 C.3     
  25 O25            1.7092    -1.1434     2.9224 O.3     
  26 Cl26           6.7382    -1.1610     2.1836 Cl      
  27 C27            0.5941    -0.8295     3.7591 C.3     
  28 H28           -0.3239     0.7904     0.1047 H       
  29 H29            4.4666     1.9343    -0.2740 H       
  30 H30            1.3724    -0.9919     0.1150 H       
  31 H31            4.7009    -0.6496    -0.7271 H       
  32 H32            6.4401     0.0205     4.7578 H       
  33 H33            4.4420     0.5210     6.1042 H       
  34 H34            2.2036    -0.0272     5.2396 H       
  35 H35           -1.5129     2.7472     0.0365 H       
  36 H36           -0.9399     5.5628     1.0667 H       
  37 H37           -2.4888     4.6983     1.2153 H       
  38 H38           -1.0469     4.0936     2.0659 H       
  39 H39           -2.6193     4.6099    -1.2357 H       
  40 H40           -1.0196     5.3547    -1.4691 H       
  41 H41           -0.2345     3.3061    -2.6248 H       
  42 H42           -1.8342     2.5613    -2.3914 H       
  43 H43           -1.6622     3.9909    -3.4378 H       
  44 H44            0.6847    -1.3680     4.7025 H       
  45 H45            0.5760     0.2429     3.9532 H       
  46 H46           -0.3290    -1.1240     3.2599 H       
@<TRIPOS>BOND
   1    1    2 ar
   2    1    3 ar
   3    1    7 1
   4    2    6 ar
   5    2   28 1
   6    3    4 ar
   7    3    9 1
   8    4    5 ar
   9    4   29 1
  10    5    6 ar
  11    5   10 1
  12    6   30 1
  13    7    8 am
  14    7   21 1
  15    8    9 1
  16    8   14 2
  17   10   11 am
  18   10   31 1
  19   11   12 1
  20   11   15 2
  21   11   16 2
  22   12   13 ar
  23   12   17 ar
  24   13   25 1
  25   13   20 ar
  26   17   18 ar
  27   17   26 1
  28   18   19 ar
  29   18   32 1
  30   19   20 ar
  31   19   33 1
  32   20   34 1
  33   21   22 1
  34   21   23 1
  35   21   35 1
  36   22   36 1
  37   22   37 1
  38   22   38 1
  39   23   24 1
  40   23   39 1
  41   23   40 1
  42   24   41 1
  43   24   42 1
  44   24   43 1
  45   25   27 1
  46   27   44 1
  47   27   45 1
  48   27   46 1

#	End of record

