#	Name: ASD02500884
#	Creating user name:	WinNT
#	Creation time:	15. 06. 2019 20:23

#	Modifying user name:	WinNT
#	Modification time:	15. 06. 2019 20:23

#	Program:	/corina/corina34_cracker 3.40 0067  02.08.2006

@<TRIPOS>MOLECULE
ASD02500884
  42   44    0    0    0
SMALL
NO_CHARGES


@<TRIPOS>ATOM
   1 S1            -0.0257     1.6382    -0.8196 S.3     
   2 C2            -0.0014    -0.0632    -0.3149 C.2     
   3 C3             1.4244    -0.4186    -0.3269 C.2     
   4 N4             2.2392     0.5596    -0.6856 N.am    
   5 C5             1.7332     1.7574    -1.0005 C.2     
   6 S6             2.6164     3.1412    -1.4863 S.2     
   7 C7            -1.0555    -0.8529     0.0079 C.2     
   8 O8             1.8251    -1.5283    -0.0291 O.2     
   9 C9             3.6857     0.3333    -0.7373 C.3     
  10 C10            4.0698    -0.1490    -2.1124 C.2     
  11 C11            4.9875     0.4875    -2.7971 C.2     
  12 C12           -2.4014    -0.2725     0.1212 C.ar    
  13 C13           -3.5306    -1.0914     0.0183 C.ar    
  14 C14           -4.7935    -0.5365     0.1260 C.ar    
  15 C15           -4.9381     0.8291     0.3356 C.ar    
  16 C16           -3.8234     1.6416     0.4372 C.ar    
  17 C17           -2.5585     1.1009     0.3380 C.ar    
  18 O18           -5.8936    -1.3283     0.0263 O.3     
  19 C19           -7.1660    -0.6891     0.1470 C.3     
  20 C20           -8.2595    -1.7172     0.0113 C.ar    
  21 C21           -7.9377    -3.0450    -0.1963 C.ar    
  22 C22           -8.9409    -3.9884    -0.3209 C.ar    
  23 C23          -10.2660    -3.6039    -0.2384 C.ar    
  24 C24          -10.5890    -2.2759    -0.0312 C.ar    
  25 C25           -9.5857    -1.3327     0.1001 C.ar    
  26 Cl26          -9.9906     0.3352     0.3608 Cl      
  27 H27           -0.9062    -1.9083     0.1818 H       
  28 H28            4.2073     1.2654    -0.5203 H       
  29 H29            3.9624    -0.4185     0.0018 H       
  30 H30            3.5886    -1.0194    -2.5334 H       
  31 H31            5.4687     1.3579    -2.3761 H       
  32 H32            5.2628     0.1419    -3.7826 H       
  33 H33           -3.4172    -2.1530    -0.1449 H       
  34 H34           -5.9255     1.2585     0.4191 H       
  35 H35           -3.9439     2.7025     0.5994 H       
  36 H36           -1.6904     1.7383     0.4182 H       
  37 H37           -7.2394    -0.2071     1.1219 H       
  38 H38           -7.2722     0.0600    -0.6376 H       
  39 H39           -6.9026    -3.3459    -0.2615 H       
  40 H40           -8.6890    -5.0260    -0.4830 H       
  41 H41          -11.0491    -4.3412    -0.3361 H       
  42 H42          -11.6245    -1.9755     0.0325 H       
@<TRIPOS>BOND
   1    1    2 1
   2    1    5 1
   3    2    3 1
   4    2    7 2
   5    3    4 am
   6    3    8 2
   7    4    5 am
   8    4    9 1
   9    5    6 2
  10    7   12 1
  11    7   27 1
  12    9   10 1
  13    9   28 1
  14    9   29 1
  15   10   11 2
  16   10   30 1
  17   11   31 1
  18   11   32 1
  19   12   13 ar
  20   12   17 ar
  21   13   14 ar
  22   13   33 1
  23   14   15 ar
  24   14   18 1
  25   15   16 ar
  26   15   34 1
  27   16   17 ar
  28   16   35 1
  29   17   36 1
  30   18   19 1
  31   19   20 1
  32   19   37 1
  33   19   38 1
  34   20   21 ar
  35   20   25 ar
  36   21   22 ar
  37   21   39 1
  38   22   23 ar
  39   22   40 1
  40   23   24 ar
  41   23   41 1
  42   24   25 ar
  43   24   42 1
  44   25   26 1

#	End of record

