#	Name: ASD03430555
#	Creating user name:	WinNT
#	Creation time:	15. 06. 2019 20:41

#	Modifying user name:	WinNT
#	Modification time:	15. 06. 2019 20:41

#	Program:	/corina/corina34_cracker 3.40 0067  02.08.2006

@<TRIPOS>MOLECULE
ASD03430555
  47   50    0    0    0
SMALL
NO_CHARGES


@<TRIPOS>ATOM
   1 C1             0.0021    -0.0041     0.0020 C.1     
   2 C2            -0.0173     1.4278     0.0099 C.ar    
   3 C3             1.1866     2.1488     0.0023 C.ar    
   4 C4             1.1588     3.5323     0.0100 C.ar    
   5 C5            -0.0558     4.2025     0.0257 C.ar    
   6 C6            -1.2500     3.4896     0.0338 C.ar    
   7 C7            -1.2357     2.1131     0.0194 C.ar    
   8 N8             0.0175    -1.1399    -0.0042 N.1     
   9 N9            -4.5302     3.2861    -0.6871 N.am    
  10 C10           -3.4014     3.8480    -1.1515 C.2     
  11 C11           -2.5644     4.2266     0.0518 C.3     
  12 C12           -3.4002     3.7899     1.2328 C.ar    
  13 C13           -3.2031     3.8532     2.5940 C.ar    
  14 C14           -4.1689     3.3618     3.4548 C.ar    
  15 C15           -5.3289     2.8087     2.9435 C.ar    
  16 C16           -5.5288     2.7440     1.5802 C.ar    
  17 C17           -4.5608     3.2368     0.7071 C.ar    
  18 O18           -3.1081     4.0193    -2.3159 O.2     
  19 C19           -5.6076     2.7881    -1.5457 C.3     
  20 C20           -5.3569     1.3396    -1.8773 C.ar    
  21 C21           -5.8629     0.3466    -1.0589 C.ar    
  22 C22           -5.6344    -0.9820    -1.3607 C.ar    
  23 C23           -4.8966    -1.3195    -2.4860 C.ar    
  24 C24           -4.3900    -0.3213    -3.3055 C.ar    
  25 C25           -4.6261     1.0057    -3.0025 C.ar    
  26 O26           -4.6701    -2.6258    -2.7848 O.3     
  27 C27           -3.9024    -2.8991    -3.9587 C.3     
  28 O28           -0.0789     5.5598     0.0337 O.3     
  29 O29            2.3738     1.4916    -0.0122 O.3     
  30 H30            2.0833     4.0907     0.0042 H       
  31 H31           -2.1652     1.5630     0.0208 H       
  32 H32           -2.3970     5.3034     0.0771 H       
  33 H33           -2.2959     4.2856     2.9894 H       
  34 H34           -4.0171     3.4097     4.5230 H       
  35 H35           -6.0823     2.4249     3.6155 H       
  36 H36           -6.4373     2.3106     1.1887 H       
  37 H37           -6.5603     2.8819    -1.0244 H       
  38 H38           -5.6380     3.3715    -2.4659 H       
  39 H39           -6.4369     0.6099    -0.1828 H       
  40 H40           -6.0296    -1.7572    -0.7209 H       
  41 H41           -3.8153    -0.5815    -4.1821 H       
  42 H42           -4.2359     1.7830    -3.6427 H       
  43 H43           -4.4094    -2.4831    -4.8294 H       
  44 H44           -2.9160    -2.4456    -3.8615 H       
  45 H45           -3.7963    -3.9770    -4.0806 H       
  46 H46           -0.0942     5.9581    -0.8473 H       
  47 H47            2.7096     1.3056    -0.8997 H       
@<TRIPOS>BOND
   1    1    2 1
   2    1    8 3
   3    2    3 ar
   4    2    7 ar
   5    3    4 ar
   6    3   29 1
   7    4    5 ar
   8    4   30 1
   9    5    6 ar
  10    5   28 1
  11    6    7 ar
  12    6   11 1
  13    7   31 1
  14    9   10 am
  15    9   17 1
  16    9   19 1
  17   10   11 1
  18   10   18 2
  19   11   12 1
  20   11   32 1
  21   12   13 ar
  22   12   17 ar
  23   13   14 ar
  24   13   33 1
  25   14   15 ar
  26   14   34 1
  27   15   16 ar
  28   15   35 1
  29   16   17 ar
  30   16   36 1
  31   19   20 1
  32   19   37 1
  33   19   38 1
  34   20   21 ar
  35   20   25 ar
  36   21   22 ar
  37   21   39 1
  38   22   23 ar
  39   22   40 1
  40   23   24 ar
  41   23   26 1
  42   24   25 ar
  43   24   41 1
  44   25   42 1
  45   26   27 1
  46   27   43 1
  47   27   44 1
  48   27   45 1
  49   28   46 1
  50   29   47 1

#	End of record

