#	Name: ASD01918134
#	Creating user name:	WinNT
#	Creation time:	15. 06. 2019 20:10

#	Modifying user name:	WinNT
#	Modification time:	15. 06. 2019 20:10

#	Program:	/corina/corina34_cracker 3.40 0067  02.08.2006

@<TRIPOS>MOLECULE
ASD01918134
  41   44    0    0    0
SMALL
NO_CHARGES


@<TRIPOS>ATOM
   1 C1            -0.0165     1.3621     0.0095 C.ar    
   2 C2             0.0021    -0.0041     0.0020 C.ar    
   3 C3             1.2183    -0.6817    -0.0132 C.ar    
   4 N4             2.3640    -0.0417    -0.0203 N.ar    
   5 C5             2.4145     1.2907    -0.0137 C.ar    
   6 C6             1.2157     2.0433     0.0014 C.ar    
   7 C7             3.6564     1.9758    -0.0219 C.ar    
   8 C8             3.6673     3.3631    -0.0150 C.ar    
   9 C9             2.4789     4.0820    -0.0001 C.ar    
  10 C10            1.2727     3.4470     0.0075 C.ar    
  11 C11            4.9224     1.2215    -0.0373 C.2     
  12 N12            6.0987     1.8793    -0.0451 N.am    
  13 O13            4.9058     0.0055    -0.0429 O.2     
  14 C14            7.2918     1.1685    -0.0595 C.2     
  15 S15            7.4158    -0.5366    -0.0693 S.3     
  16 C16            9.1735    -0.4193    -0.0846 C.2     
  17 C17            9.5020     0.8741    -0.0810 C.2     
  18 N18            8.4736     1.7015    -0.0731 N.2     
  19 C19           10.9313     1.3515    -0.0911 C.3     
  20 C20            2.5238     5.5883     0.0076 C.3     
  21 C21            2.5256     6.0982    -1.4105 C.ar    
  22 F22            1.4021     6.0848     0.6802 F       
  23 F23            3.6855     6.0169     0.6587 F       
  24 C24            1.3366     6.3736    -2.0672 C.ar    
  25 N25            1.3773     6.8199    -3.3123 N.ar    
  26 C26            2.5288     7.0026    -3.9268 C.ar    
  27 N27            3.6788     6.7514    -3.3340 N.ar    
  28 C28            3.7166     6.3083    -2.0876 C.ar    
  29 H29           -0.9504     1.9045     0.0169 H       
  30 H30           -0.9253    -0.5575     0.0082 H       
  31 H31            1.2188    -1.7616    -0.0190 H       
  32 H32            4.6101     3.8898    -0.0209 H       
  33 H33            0.3597     4.0237     0.0191 H       
  34 H34            6.1120     2.8492    -0.0406 H       
  35 H35            9.8645    -1.2492    -0.0948 H       
  36 H36           11.2670     1.4717    -1.1211 H       
  37 H37           10.9985     2.3081     0.4270 H       
  38 H38           11.5623     0.6198     0.4136 H       
  39 H39            0.3895     6.2257    -1.5695 H       
  40 H40            2.5301     7.3676    -4.9432 H       
  41 H41            4.6623     6.1044    -1.6076 H       
@<TRIPOS>BOND
   1    1    2 ar
   2    1    6 ar
   3    1   29 1
   4    2    3 ar
   5    2   30 1
   6    3    4 ar
   7    3   31 1
   8    4    5 ar
   9    5    6 ar
  10    5    7 ar
  11    6   10 ar
  12    7    8 ar
  13    7   11 1
  14    8    9 ar
  15    8   32 1
  16    9   10 ar
  17    9   20 1
  18   10   33 1
  19   11   12 am
  20   11   13 2
  21   12   14 1
  22   12   34 1
  23   14   15 1
  24   14   18 2
  25   15   16 1
  26   16   17 2
  27   16   35 1
  28   17   18 1
  29   17   19 1
  30   19   36 1
  31   19   37 1
  32   19   38 1
  33   20   21 1
  34   20   22 1
  35   20   23 1
  36   21   24 ar
  37   21   28 ar
  38   24   25 ar
  39   24   39 1
  40   25   26 ar
  41   26   27 ar
  42   26   40 1
  43   27   28 ar
  44   28   41 1

#	End of record

