#	Name: ASD02198518
#	Creating user name:	WinNT
#	Creation time:	15. 06. 2019 20:19

#	Modifying user name:	WinNT
#	Modification time:	15. 06. 2019 20:19

#	Program:	/corina/corina34_cracker 3.40 0067  02.08.2006

@<TRIPOS>MOLECULE
ASD02198518
  45   48    0    0    0
SMALL
NO_CHARGES


@<TRIPOS>ATOM
   1 C1             0.0071     1.5098     0.1335 C.2     
   2 C2             0.0746     0.1699    -0.0948 C.2     
   3 N3            -1.0519    -0.5605    -0.2650 N.pl3   
   4 N4            -2.2299    -0.0572    -0.2247 N.2     
   5 C5            -2.4378     1.2255    -0.0114 C.2     
   6 C6            -1.2794     2.1065     0.1922 C.2     
   7 C7            -0.9241    -1.9341    -0.4971 C.ar    
   8 C8            -1.3807    -3.8677    -1.8457 C.ar    
   9 C9            -0.6717    -4.6527    -0.9556 C.ar    
  10 C10           -0.0934    -4.0842     0.1649 C.ar    
  11 C11           -0.2174    -2.7285     0.3966 C.ar    
  12 C12           -3.8111     1.7682     0.0275 C.2     
  13 N13           -4.3741     2.4803     1.0489 N.pl3   
  14 N14           -5.6857     2.7985     0.6751 N.2     
  15 C15           -5.9151     2.3059    -0.5160 C.2     
  16 C16           -4.7635     1.6568    -0.9616 C.2     
  17 C17           -3.7511     2.8291     2.2540 C.ar    
  18 C18           -2.9579     1.9044     2.9203 C.ar    
  19 O19           -1.4176     3.3043     0.3942 O.2     
  20 C20           -3.9209     4.1022     2.7820 C.ar    
  21 C21           -3.3049     4.4432     3.9702 C.ar    
  22 C22           -2.5198     3.5184     4.6340 C.ar    
  23 C23           -2.3446     2.2515     4.1081 C.ar    
  24 C24           -1.5094    -2.5089    -1.6207 C.ar    
  25 F25           -2.2026    -1.7416    -2.4902 F       
  26 C26           -0.5338    -6.1328    -1.2035 C.3     
  27 O27            1.1343     2.2512     0.3051 O.3     
  28 C28            2.3828     1.5595     0.2346 C.3     
  29 H29            1.0380    -0.3160    -0.1409 H       
  30 H30           -1.8309    -4.3149    -2.7196 H       
  31 H31            0.4593    -4.7011     0.8580 H       
  32 H32            0.2351    -2.2862     1.2718 H       
  33 H33           -6.8414     2.3914    -1.0646 H       
  34 H34           -4.6427     1.1517    -1.9085 H       
  35 H35           -2.8209     0.9147     2.5103 H       
  36 H36           -4.5336     4.8251     2.2639 H       
  37 H37           -3.4363     5.4333     4.3811 H       
  38 H38           -2.0389     3.7876     5.5628 H       
  39 H39           -1.7311     1.5313     4.6291 H       
  40 H40            0.3599    -6.3198    -1.7989 H       
  41 H41           -0.4511    -6.6547    -0.2502 H       
  42 H42           -1.4105    -6.4944    -1.7408 H       
  43 H43            2.4168     0.7915     1.0073 H       
  44 H44            2.4851     1.0935    -0.7455 H       
  45 H45            3.1986     2.2658     0.3880 H       
@<TRIPOS>BOND
   1    1    2 2
   2    1   27 1
   3    1    6 1
   4    2    3 1
   5    2   29 1
   6    3    4 1
   7    3    7 1
   8    4    5 2
   9    5    6 1
  10    5   12 1
  11    6   19 2
  12    7   24 ar
  13    7   11 ar
  14    8    9 ar
  15    8   24 ar
  16    8   30 1
  17    9   10 ar
  18    9   26 1
  19   10   11 ar
  20   10   31 1
  21   11   32 1
  22   12   13 1
  23   12   16 2
  24   13   14 1
  25   13   17 1
  26   14   15 2
  27   15   16 1
  28   15   33 1
  29   16   34 1
  30   17   20 ar
  31   17   18 ar
  32   18   23 ar
  33   18   35 1
  34   20   21 ar
  35   20   36 1
  36   21   22 ar
  37   21   37 1
  38   22   23 ar
  39   22   38 1
  40   23   39 1
  41   24   25 1
  42   26   40 1
  43   26   41 1
  44   26   42 1
  45   27   28 1
  46   28   43 1
  47   28   44 1
  48   28   45 1

#	End of record

