#	Name: ASD01870180
#	Creating user name:	WinNT
#	Creation time:	15. 06. 2019 19:38

#	Modifying user name:	WinNT
#	Modification time:	15. 06. 2019 19:38

#	Program:	/corina/corina34_cracker 3.40 0067  02.08.2006

@<TRIPOS>MOLECULE
ASD01870180
  62   66    0    0    0
SMALL
NO_CHARGES


@<TRIPOS>ATOM
   1 C1             0.1976     1.3680     0.1521 C.ar    
   2 C2             0.2683    -0.0169     0.2929 C.ar    
   3 C3             1.4851    -0.6350     0.3494 C.ar    
   4 C4             2.6413     0.1627     0.2618 C.ar    
   5 C5             2.4975     1.5666     0.1194 C.ar    
   6 N6             1.2758     2.1081     0.0707 N.ar    
   7 C7             3.9255    -0.4057     0.3134 C.ar    
   8 C8             5.0258     0.3848     0.2273 C.ar    
   9 C9             4.9025     1.7803     0.0855 C.ar    
  10 C10            3.6468     2.3625     0.0319 C.ar    
  11 C11            5.9150     2.8502    -0.0288 C.2     
  12 N12            5.3165     4.0477    -0.1480 N.am    
  13 C13            3.8631     3.8471    -0.1205 C.3     
  14 C14            6.0001     5.3365    -0.2823 C.3     
  15 C15            6.8818     5.5764     0.9449 C.3     
  16 C16            7.9197     4.4575     1.0538 C.3     
  17 C17            8.7897     4.4446    -0.2047 C.3     
  18 C18            7.9080     4.2047    -1.4319 C.3     
  19 C19            6.8701     5.3236    -1.5408 C.3     
  20 C20            4.0817    -1.8968     0.4653 C.3     
  21 C21            4.0033    -2.5508    -0.8902 C.ar    
  22 C22            5.1513    -2.7437    -1.6437 C.ar    
  23 C23            5.0321    -3.3492    -2.8849 C.ar    
  24 C24            3.7803    -3.7382    -3.3275 C.ar    
  25 N25            2.7094    -3.5384    -2.5826 N.ar    
  26 C26            2.7873    -2.9705    -1.3949 C.ar    
  27 O27            7.1174     2.6727    -0.0168 O.2     
  28 Cl28           3.6166    -4.4972    -4.8802 Cl      
  29 O29            6.0692     5.5884     2.1203 O.3     
  30 C30            3.2394     4.3381    -1.4285 C.3     
  31 C31            3.8882     3.6104    -2.6076 C.3     
  32 O32            3.5546     2.2219    -2.5523 O.3     
  33 C33            3.3745     4.2064    -3.9198 C.3     
  34 O34            4.0657     3.6075    -5.0178 O.3     
  35 H35           -0.7711     1.8429     0.1042 H       
  36 H36           -0.6380    -0.6006     0.3577 H       
  37 H37            1.5580    -1.7070     0.4587 H       
  38 H38            6.0080    -0.0623     0.2683 H       
  39 H39            3.4274     4.3782     0.7257 H       
  40 H40            5.2607     6.1336    -0.3599 H       
  41 H41            7.3904     6.5352     0.8450 H       
  42 H42            8.5478     4.6284     1.9280 H       
  43 H43            7.4110     3.4986     1.1537 H       
  44 H44            9.2983     5.4035    -0.3046 H       
  45 H45            9.5291     3.6475    -0.1271 H       
  46 H46            8.5278     4.1955    -2.3284 H       
  47 H47            7.3993     3.2458    -1.3320 H       
  48 H48            6.2420     5.1527    -2.4150 H       
  49 H49            7.3787     6.2825    -1.6407 H       
  50 H50            5.0479    -2.1166     0.9194 H       
  51 H51            3.2851    -2.2827     1.1014 H       
  52 H52            6.1155    -2.4293    -1.2725 H       
  53 H53            5.9051    -3.5148    -3.4987 H       
  54 H54            1.8890    -2.8237    -0.8136 H       
  55 H55            6.5632     5.7360     2.9384 H       
  56 H56            2.1688     4.1335    -1.4198 H       
  57 H57            3.4034     5.4110    -1.5289 H       
  58 H58            4.9707     3.7264    -2.5551 H       
  59 H59            2.6131     2.0384    -2.6748 H       
  60 H60            2.3061     4.0120    -4.0135 H       
  61 H61            3.5498     5.2822    -3.9234 H       
  62 H62            3.7903     3.9386    -5.8836 H       
@<TRIPOS>BOND
   1    1    2 ar
   2    1    6 ar
   3    1   35 1
   4    2    3 ar
   5    2   36 1
   6    3    4 ar
   7    3   37 1
   8    4    5 ar
   9    4    7 ar
  10    5    6 ar
  11    5   10 ar
  12    7    8 ar
  13    7   20 1
  14    8    9 ar
  15    8   38 1
  16    9   10 ar
  17    9   11 1
  18   10   13 1
  19   11   12 am
  20   11   27 2
  21   12   13 1
  22   12   14 1
  23   13   30 1
  24   13   39 1
  25   14   15 1
  26   14   19 1
  27   14   40 1
  28   15   16 1
  29   15   29 1
  30   15   41 1
  31   16   17 1
  32   16   42 1
  33   16   43 1
  34   17   18 1
  35   17   44 1
  36   17   45 1
  37   18   19 1
  38   18   46 1
  39   18   47 1
  40   19   48 1
  41   19   49 1
  42   20   21 1
  43   20   50 1
  44   20   51 1
  45   21   22 ar
  46   21   26 ar
  47   22   23 ar
  48   22   52 1
  49   23   24 ar
  50   23   53 1
  51   24   25 ar
  52   24   28 1
  53   25   26 ar
  54   26   54 1
  55   29   55 1
  56   30   31 1
  57   30   56 1
  58   30   57 1
  59   31   32 1
  60   31   33 1
  61   31   58 1
  62   32   59 1
  63   33   34 1
  64   33   60 1
  65   33   61 1
  66   34   62 1

#	End of record

