#	Name: ASD04840065
#	Creating user name:	WinNT
#	Creation time:	15. 06. 2019 20:52

#	Modifying user name:	WinNT
#	Modification time:	15. 06. 2019 20:52

#	Program:	/corina/corina34_cracker 3.40 0067  02.08.2006

@<TRIPOS>MOLECULE
ASD04840065
  49   52    0    0    0
SMALL
NO_CHARGES


@<TRIPOS>ATOM
   1 C1            -0.0170     1.4008     0.0097 C.ar    
   2 C2             0.0021    -0.0041     0.0020 C.ar    
   3 C3             1.1940    -0.6614    -0.0128 C.ar    
   4 C4             2.3990     0.0381    -0.0201 C.ar    
   5 C5             2.4193     1.3992    -0.0125 C.ar    
   6 C6             1.2089     2.1124     0.0019 C.ar    
   7 C7             1.1898     3.5178     0.0090 C.ar    
   8 C8            -0.0019     4.1748     0.0234 C.ar    
   9 C9            -1.2073     3.4751     0.0312 C.ar    
  10 C10           -1.2278     2.1144     0.0193 C.ar    
  11 C11           -2.5418     1.3766     0.0216 C.3     
  12 O12           -3.6167     2.3181     0.0317 O.3     
  13 C13           -4.8764     1.8147     0.0350 C.ar    
  14 C14           -5.9812     2.6798     0.0449 C.ar    
  15 C15           -7.2773     2.1536     0.0483 C.ar    
  16 C16           -7.4686     0.8022     0.0420 C.ar    
  17 C17           -6.3737    -0.0649     0.0327 C.ar    
  18 C18           -5.0780     0.4449     0.0230 C.ar    
  19 C19           -5.7767     4.1382     0.0522 C.2     
  20 O20           -6.8390     4.9676     0.0616 O.3     
  21 O21           -4.6501     4.5938     0.0496 O.2     
  22 C22           -6.5916    -1.5316     0.0269 C.ar    
  23 C23           -7.8870    -2.0465     0.0308 C.ar    
  24 C24           -8.0838    -3.4124     0.0255 C.ar    
  25 C25           -6.9986    -4.2702     0.0167 C.ar    
  26 C26           -5.7108    -3.7650     0.0128 C.ar    
  27 C27           -5.5019    -2.4008     0.0118 C.ar    
  28 O28           -7.2967    -6.2266    -1.3369 O.3     
  29 C29           -7.2201    -5.7608     0.0119 C.3     
  30 H30           -0.9241    -0.5595     0.0082 H       
  31 H31            1.2059    -1.7413    -0.0188 H       
  32 H32            3.3309    -0.5077    -0.0315 H       
  33 H33            3.3610     1.9281    -0.0175 H       
  34 H34            2.1159     4.0733     0.0034 H       
  35 H35           -0.0137     5.2548     0.0292 H       
  36 H36           -2.1391     4.0210     0.0427 H       
  37 H37           -2.6113     0.7554    -0.8714 H       
  38 H38           -2.6028     0.7459     0.9085 H       
  39 H39           -8.1285     2.8182     0.0562 H       
  40 H40           -8.4715     0.4014     0.0447 H       
  41 H41           -4.2322    -0.2266     0.0105 H       
  42 H42           -6.6547     5.9169     0.0661 H       
  43 H43           -8.7350    -1.3777     0.0384 H       
  44 H44           -9.0870    -3.8124     0.0285 H       
  45 H45           -4.8673    -4.4394     0.0059 H       
  46 H46           -4.4962    -2.0074     0.0042 H       
  47 H47           -7.4388    -7.1798    -1.4163 H       
  48 H48           -6.3906    -6.2530     0.5197 H       
  49 H49           -8.1512    -5.9914     0.5294 H       
@<TRIPOS>BOND
   1    1    2 ar
   2    1    6 ar
   3    1   10 ar
   4    2    3 ar
   5    2   30 1
   6    3    4 ar
   7    3   31 1
   8    4    5 ar
   9    4   32 1
  10    5    6 ar
  11    5   33 1
  12    6    7 ar
  13    7    8 ar
  14    7   34 1
  15    8    9 ar
  16    8   35 1
  17    9   10 ar
  18    9   36 1
  19   10   11 1
  20   11   12 1
  21   11   37 1
  22   11   38 1
  23   12   13 1
  24   13   14 ar
  25   13   18 ar
  26   14   15 ar
  27   14   19 1
  28   15   16 ar
  29   15   39 1
  30   16   17 ar
  31   16   40 1
  32   17   18 ar
  33   17   22 1
  34   18   41 1
  35   19   20 1
  36   19   21 2
  37   20   42 1
  38   22   23 ar
  39   22   27 ar
  40   23   24 ar
  41   23   43 1
  42   24   25 ar
  43   24   44 1
  44   25   29 1
  45   25   26 ar
  46   26   27 ar
  47   26   45 1
  48   27   46 1
  49   28   29 1
  50   28   47 1
  51   29   48 1
  52   29   49 1

#	End of record

