#	Name: ASD01890103
#	Creating user name:	WinNT
#	Creation time:	15. 06. 2019 19:50

#	Modifying user name:	WinNT
#	Modification time:	15. 06. 2019 19:50

#	Program:	/corina/corina34_cracker 3.40 0067  02.08.2006

@<TRIPOS>MOLECULE
ASD01890103
  53   55    0    0    0
SMALL
NO_CHARGES


@<TRIPOS>ATOM
   1 C1             1.4687     0.1279    -0.0896 C.2     
   2 C2             0.0038    -0.1631     0.1110 C.3     
   3 C3            -0.5256    -0.9202    -1.0796 C.2     
   4 O4             2.0832    -0.4384    -0.9624 O.2     
   5 O5             2.0897     1.0203     0.6977 O.3     
   6 O6             0.2271    -1.5702    -1.7657 O.2     
   7 O7            -1.8335    -0.8724    -1.3779 O.3     
   8 C8            -0.1803    -1.0062     1.3745 C.3     
   9 C9            -1.6672    -1.3061     1.5753 C.3     
  10 C10           -2.4002    -0.0265     1.8858 C.2     
  11 O11           -1.7912     1.0203     1.9533 O.2     
  12 C12            0.5781    -2.3004     1.2298 C.ar    
  13 C13            1.5810    -2.6175     2.1268 C.ar    
  14 C14            2.2770    -3.8043     1.9945 C.ar    
  15 C15            1.9696    -4.6750     0.9642 C.ar    
  16 C16            0.9658    -4.3571     0.0668 C.ar    
  17 C17            0.2667    -3.1726     0.2034 C.ar    
  18 Cl18           2.8437    -6.1656     0.7972 Cl      
  19 C19           -3.8513    -0.0470     2.1066 C.ar    
  20 C20           -4.5393     1.1430     2.3963 C.ar    
  21 C21           -5.9099     1.1102     2.6029 C.ar    
  22 C22           -6.5940    -0.0868     2.5239 C.ar    
  23 C23           -5.9200    -1.2636     2.2384 C.ar    
  24 C24           -4.5596    -1.2516     2.0242 C.ar    
  25 O25           -3.8663     2.3176     2.4741 O.3     
  26 C26           -4.6330     3.4860     2.7726 C.3     
  27 C27           -3.7227     4.6862     2.8177 C.ar    
  28 C28           -3.4854     5.4173     1.6687 C.ar    
  29 C29           -2.6504     6.5181     1.7101 C.ar    
  30 C30           -2.0531     6.8882     2.9005 C.ar    
  31 C31           -2.2911     6.1577     4.0497 C.ar    
  32 C32           -3.1295     5.0594     4.0092 C.ar    
  33 H33           -0.5417     0.7746     0.2172 H       
  34 H34            3.0446     1.1189     0.5812 H       
  35 H35           -2.1261    -1.3743    -2.1510 H       
  36 H36            0.1992    -0.4570     2.2362 H       
  37 H37           -2.0750    -1.7469     0.6656 H       
  38 H38           -1.7884    -2.0044     2.4034 H       
  39 H39            1.8211    -1.9375     2.9308 H       
  40 H40            3.0607    -4.0517     2.6952 H       
  41 H41            0.7255    -5.0364    -0.7377 H       
  42 H42           -0.5199    -2.9263    -0.4944 H       
  43 H43           -6.4434     2.0222     2.8263 H       
  44 H44           -7.6616    -0.1061     2.6861 H       
  45 H45           -6.4650    -2.1941     2.1790 H       
  46 H46           -4.0395    -2.1706     1.7976 H       
  47 H47           -5.3886     3.6319     2.0006 H       
  48 H48           -5.1207     3.3633     3.7397 H       
  49 H49           -3.9521     5.1281     0.7387 H       
  50 H50           -2.4644     7.0889     0.8123 H       
  51 H51           -1.4001     7.7479     2.9327 H       
  52 H52           -1.8241     6.4466     4.9797 H       
  53 H53           -3.3184     4.4908     4.9078 H       
@<TRIPOS>BOND
   1    1    2 1
   2    1    4 2
   3    1    5 1
   4    2    3 1
   5    2    8 1
   6    2   33 1
   7    3    6 2
   8    3    7 1
   9    5   34 1
  10    7   35 1
  11    8    9 1
  12    8   12 1
  13    8   36 1
  14    9   10 1
  15    9   37 1
  16    9   38 1
  17   10   11 2
  18   10   19 1
  19   12   13 ar
  20   12   17 ar
  21   13   14 ar
  22   13   39 1
  23   14   15 ar
  24   14   40 1
  25   15   16 ar
  26   15   18 1
  27   16   17 ar
  28   16   41 1
  29   17   42 1
  30   19   20 ar
  31   19   24 ar
  32   20   21 ar
  33   20   25 1
  34   21   22 ar
  35   21   43 1
  36   22   23 ar
  37   22   44 1
  38   23   24 ar
  39   23   45 1
  40   24   46 1
  41   25   26 1
  42   26   27 1
  43   26   47 1
  44   26   48 1
  45   27   28 ar
  46   27   32 ar
  47   28   29 ar
  48   28   49 1
  49   29   30 ar
  50   29   50 1
  51   30   31 ar
  52   30   51 1
  53   31   32 ar
  54   31   52 1
  55   32   53 1

#	End of record

