#	Name: ASD01910224
#	Creating user name:	WinNT
#	Creation time:	15. 06. 2019 19:55

#	Modifying user name:	WinNT
#	Modification time:	15. 06. 2019 19:55

#	Program:	/corina/corina34_cracker 3.40 0067  02.08.2006

@<TRIPOS>MOLECULE
ASD01910224
  50   54    0    0    0
SMALL
NO_CHARGES


@<TRIPOS>ATOM
   1 C1             1.7734     0.3469    -0.3607 C.2     
   2 C2             2.5377     1.6351    -0.1948 C.3     
   3 C3             2.4492     2.4515    -1.4862 C.3     
   4 C4             3.2523     3.7449    -1.3301 C.3     
   5 C5             2.6563     4.5769    -0.1903 C.3     
   6 N6             2.6042     3.7489     1.0224 N.am    
   7 C7             1.9337     2.4432     0.9579 C.3     
   8 C8             3.1608     4.1790     2.1720 C.2     
   9 C9             2.9800     3.4097     3.4066 C.2     
  10 O10            3.8135     5.2062     2.1851 O.2     
  11 N11            2.2610    -0.8649    -0.2640 N.2     
  12 C12            1.2169    -1.6952    -0.4856 C.2     
  13 N13            0.1670    -0.9459    -0.7018 N.2     
  14 O14            0.4694     0.2264    -0.6285 O.3     
  15 C15            1.2554    -3.1785    -0.4846 C.ar    
  16 C16            0.0936    -3.9078    -0.7303 C.ar    
  17 C17            0.1340    -5.2868    -0.7289 C.ar    
  18 C18            1.3275    -5.9467    -0.4836 C.ar    
  19 C19            2.4850    -5.2254    -0.2389 C.ar    
  20 C20            2.4546    -3.8462    -0.2437 C.ar    
  21 F21            1.3626    -7.2973    -0.4827 F       
  22 C22            3.8549     3.3537     4.4579 C.2     
  23 N23            3.4562     2.5928     5.4420 N.2     
  24 C24            2.3055     1.9955     5.3076 C.2     
  25 S25            1.5942     2.3976     3.8063 S.3     
  26 C26            1.6982     1.1004     6.3147 C.ar    
  27 C27            2.3629     0.8422     7.5148 C.ar    
  28 C28            1.7905     0.0057     8.4505 C.ar    
  29 C29            0.5604    -0.5769     8.2017 C.ar    
  30 C30           -0.1037    -0.3252     7.0143 C.ar    
  31 C31            0.4549     0.5139     6.0725 C.ar    
  32 H32            3.5821     1.4128     0.0242 H       
  33 H33            2.8560     1.8689    -2.3127 H       
  34 H34            1.4066     2.6940    -1.6917 H       
  35 H35            4.2900     3.5032    -1.1001 H       
  36 H36            3.2081     4.3148    -2.2582 H       
  37 H37            3.2825     5.4506    -0.0095 H       
  38 H38            1.6492     4.8958    -0.4586 H       
  39 H39            0.8675     2.5881     0.7833 H       
  40 H40            2.0830     1.9090     1.8963 H       
  41 H41           -0.8371    -3.3943    -0.9212 H       
  42 H42           -0.7660    -5.8528    -0.9189 H       
  43 H43            3.4131    -5.7437    -0.0482 H       
  44 H44            3.3573    -3.2847    -0.0528 H       
  45 H45            4.7917     3.8909     4.4724 H       
  46 H46            3.3232     1.2961     7.7100 H       
  47 H47            2.3038    -0.1952     9.3793 H       
  48 H48            0.1168    -1.2313     8.9375 H       
  49 H49           -1.0636    -0.7831     6.8262 H       
  50 H50           -0.0645     0.7096     5.1460 H       
@<TRIPOS>BOND
   1    1   11 2
   2    1    2 1
   3    1   14 1
   4    2    3 1
   5    2    7 1
   6    2   32 1
   7    3    4 1
   8    3   33 1
   9    3   34 1
  10    4    5 1
  11    4   35 1
  12    4   36 1
  13    5    6 1
  14    5   37 1
  15    5   38 1
  16    6    7 1
  17    6    8 am
  18    7   39 1
  19    7   40 1
  20    8    9 1
  21    8   10 2
  22    9   22 2
  23    9   25 1
  24   11   12 1
  25   12   13 2
  26   12   15 1
  27   13   14 1
  28   15   16 ar
  29   15   20 ar
  30   16   17 ar
  31   16   41 1
  32   17   18 ar
  33   17   42 1
  34   18   19 ar
  35   18   21 1
  36   19   20 ar
  37   19   43 1
  38   20   44 1
  39   22   23 1
  40   22   45 1
  41   23   24 2
  42   24   25 1
  43   24   26 1
  44   26   27 ar
  45   26   31 ar
  46   27   28 ar
  47   27   46 1
  48   28   29 ar
  49   28   47 1
  50   29   30 ar
  51   29   48 1
  52   30   31 ar
  53   30   49 1
  54   31   50 1

#	End of record

