#	Name: ASD01811103
#	Creating user name:	WinNT
#	Creation time:	15. 06. 2019 19:26

#	Modifying user name:	WinNT
#	Modification time:	15. 06. 2019 19:26

#	Program:	/corina/corina34_cracker 3.40 0067  02.08.2006

@<TRIPOS>MOLECULE
ASD01811103
  49   52    0    0    0
SMALL
NO_CHARGES


@<TRIPOS>ATOM
   1 C1            -0.6638     1.4725     0.0040 C.2     
   2 C2            -0.4077     0.1541    -0.0326 C.2     
   3 N3            -1.4204    -0.7579     0.0643 N.pl3   
   4 C4            -2.7090    -0.4178     0.1862 C.2     
   5 C5            -3.0747     0.9132     0.2229 C.2     
   6 C6            -2.0086     1.9191     0.1320 C.2     
   7 C7            -1.0779    -2.1820     0.0326 C.3     
   8 C8            -1.2003    -2.6968    -1.3785 C.ar    
   9 O9            -2.2708     3.1111     0.1582 O.2     
  10 C10           -4.4854     1.3105     0.3534 C.2     
  11 O11           -5.3513     0.4612     0.4309 O.2     
  12 O12           -4.8175     2.6164     0.3870 O.3     
  13 C13           -0.0795    -2.7666    -2.1861 C.ar    
  14 C14           -0.1858    -3.2377    -3.4790 C.ar    
  15 C15           -1.4250    -3.6434    -3.9703 C.ar    
  16 C16           -2.5507    -3.5709    -3.1524 C.ar    
  17 C17           -2.4320    -3.1031    -1.8593 C.ar    
  18 C18           -1.5455    -4.1503    -5.3597 C.ar    
  19 C19           -2.7848    -4.5559    -5.8507 C.ar    
  20 C20           -2.8919    -5.0261    -7.1437 C.ar    
  21 C21           -1.7704    -5.0957    -7.9524 C.ar    
  22 C22           -0.5369    -4.6939    -7.4691 C.ar    
  23 C23           -0.4206    -4.2168    -6.1795 C.ar    
  24 C24            0.4094     2.5253    -0.0781 C.3     
  25 C25            1.7036     1.9371    -0.6359 C.3     
  26 C26            2.0305     0.6652     0.1565 C.3     
  27 C27            0.9890    -0.3953    -0.1905 C.3     
  28 O28           -0.0331     3.5824    -0.9317 O.3     
  29 Cl29          -1.9113    -5.6893    -9.5777 Cl      
  30 H30           -3.4647    -1.1862     0.2556 H       
  31 H31           -0.0541    -2.3173     0.3812 H       
  32 H32           -1.7584    -2.7338     0.6810 H       
  33 H33           -5.7569     2.8284     0.4738 H       
  34 H34            0.8804    -2.4516    -1.8044 H       
  35 H35            0.6899    -3.2915    -4.1089 H       
  36 H36           -3.5136    -3.8837    -3.5283 H       
  37 H37           -3.3038    -3.0465    -1.2244 H       
  38 H38           -3.6602    -4.5027    -5.2203 H       
  39 H39           -3.8520    -5.3408    -7.5251 H       
  40 H40            0.3351    -4.7500    -8.1038 H       
  41 H41            0.5420    -3.9033    -5.8035 H       
  42 H42            0.5971     2.9246     0.9186 H       
  43 H43            1.5716     1.6905    -1.6894 H       
  44 H44            2.5134     2.6582    -0.5248 H       
  45 H45            3.0237     0.3078    -0.1153 H       
  46 H46            1.9957     0.8786     1.2249 H       
  47 H47            1.1146    -1.2518     0.4718 H       
  48 H48            1.1337    -0.7161    -1.2221 H       
  49 H49            0.6073     4.2997    -1.0337 H       
@<TRIPOS>BOND
   1    1    2 2
   2    1   24 1
   3    1    6 1
   4    2    3 1
   5    2   27 1
   6    3    4 1
   7    3    7 1
   8    4    5 2
   9    4   30 1
  10    5    6 1
  11    5   10 1
  12    6    9 2
  13    7    8 1
  14    7   31 1
  15    7   32 1
  16    8   13 ar
  17    8   17 ar
  18   10   11 2
  19   10   12 1
  20   12   33 1
  21   13   14 ar
  22   13   34 1
  23   14   15 ar
  24   14   35 1
  25   15   16 ar
  26   15   18 1
  27   16   17 ar
  28   16   36 1
  29   17   37 1
  30   18   19 ar
  31   18   23 ar
  32   19   20 ar
  33   19   38 1
  34   20   21 ar
  35   20   39 1
  36   21   22 ar
  37   21   29 1
  38   22   23 ar
  39   22   40 1
  40   23   41 1
  41   24   25 1
  42   24   28 1
  43   24   42 1
  44   25   26 1
  45   25   43 1
  46   25   44 1
  47   26   27 1
  48   26   45 1
  49   26   46 1
  50   27   47 1
  51   27   48 1
  52   28   49 1

#	End of record

