#	Name: ASD02690004
#	Creating user name:	WinNT
#	Creation time:	15. 06. 2019 20:26

#	Modifying user name:	WinNT
#	Modification time:	15. 06. 2019 20:26

#	Program:	/corina/corina34_cracker 3.40 0067  02.08.2006

@<TRIPOS>MOLECULE
ASD02690004
  38   40    0    0    0
SMALL
NO_CHARGES


@<TRIPOS>ATOM
   1 C1            -0.2618     2.0886     0.7528 C.ar    
   2 C2            -0.0414     0.7224     0.6419 C.ar    
   3 C3            -1.1118    -0.1293     0.4601 C.ar    
   4 C4            -2.4060     0.3698     0.3873 C.ar    
   5 C5            -2.6254     1.7245     0.4750 C.ar    
   6 C6            -1.5520     2.5834     0.6742 C.ar    
   7 O7             0.7840     2.9357     0.9433 O.3     
   8 Cl8            1.5724     0.0890     0.7309 Cl      
   9 C9            -3.5327    -0.6191     0.2417 C.3     
  10 C10           -4.4697    -0.2057    -0.8963 C.3     
  11 N11           -5.5526     0.5952    -0.3221 N.3     
  12 C12           -5.0840     1.3872     0.8225 C.3     
  13 C13           -3.9946     2.3447     0.3424 C.3     
  14 C14           -4.0474     3.6058     1.1658 C.ar    
  15 C15           -4.2769     4.8229     0.5521 C.ar    
  16 C16           -4.3254     5.9797     1.3074 C.ar    
  17 C17           -4.1447     5.9192     2.6766 C.ar    
  18 C18           -3.9161     4.7019     3.2904 C.ar    
  19 C19           -3.8720     3.5446     2.5356 C.ar    
  20 C20           -6.1683     1.4558    -1.3410 C.3     
  21 H21           -0.9418    -1.1924     0.3733 H       
  22 H22           -1.7246     3.6461     0.7598 H       
  23 H23            1.1766     3.2663     0.1238 H       
  24 H24           -3.1200    -1.6049     0.0271 H       
  25 H25           -4.0963    -0.6614     1.1737 H       
  26 H26           -3.9212     0.3871    -1.6283 H       
  27 H27           -4.8823    -1.0938    -1.3751 H       
  28 H28           -5.9152     1.9575     1.2373 H       
  29 H29           -4.6770     0.7228     1.5847 H       
  30 H30           -4.1739     2.5944    -0.7034 H       
  31 H31           -4.4181     4.8702    -0.5176 H       
  32 H32           -4.5040     6.9307     0.8278 H       
  33 H33           -4.1818     6.8230     3.2666 H       
  34 H34           -3.7746     4.6546     4.3601 H       
  35 H35           -3.6934     2.5936     3.0152 H       
  36 H36           -6.6788     0.8370    -2.0790 H       
  37 H37           -6.8876     2.1232    -0.8665 H       
  38 H38           -5.3954     2.0457    -1.8337 H       
@<TRIPOS>BOND
   1    1    2 ar
   2    1    7 1
   3    1    6 ar
   4    2    3 ar
   5    2    8 1
   6    3    4 ar
   7    3   21 1
   8    4    5 ar
   9    4    9 1
  10    5    6 ar
  11    5   13 1
  12    6   22 1
  13    7   23 1
  14    9   10 1
  15    9   24 1
  16    9   25 1
  17   10   11 1
  18   10   26 1
  19   10   27 1
  20   11   12 1
  21   11   20 1
  22   12   13 1
  23   12   28 1
  24   12   29 1
  25   13   14 1
  26   13   30 1
  27   14   15 ar
  28   14   19 ar
  29   15   16 ar
  30   15   31 1
  31   16   17 ar
  32   16   32 1
  33   17   18 ar
  34   17   33 1
  35   18   19 ar
  36   18   34 1
  37   19   35 1
  38   20   36 1
  39   20   37 1
  40   20   38 1

#	End of record

