#	Name: ASD03092975
#	Creating user name:	WinNT
#	Creation time:	15. 06. 2019 20:33

#	Modifying user name:	WinNT
#	Modification time:	15. 06. 2019 20:33

#	Program:	/corina/corina34_cracker 3.40 0067  02.08.2006

@<TRIPOS>MOLECULE
ASD03092975
  39   42    0    0    0
SMALL
NO_CHARGES


@<TRIPOS>ATOM
   1 N1             1.4503    -0.7952     0.0390 N.am    
   2 S2            -0.0011     0.0013     0.0019 S.o2    
   3 O3            -0.7541    -0.4852     1.1045 O.2     
   4 O4             0.3008     1.3770    -0.1865 O.2     
   5 C5            -0.8483    -0.5256    -1.4504 C.ar    
   6 C6            -0.6710     0.1562    -2.6398 C.ar    
   7 C7            -1.3356    -0.2573    -3.7792 C.ar    
   8 C8            -2.1772    -1.3528    -3.7293 C.ar    
   9 C9            -2.3538    -2.0351    -2.5401 C.ar    
  10 C10           -1.6859    -1.6243    -1.4017 C.ar    
  11 C11           -2.9025    -1.8029    -4.9712 C.3     
  12 H12           -3.7782    -2.4298    -4.8030 H       
  13 C13           -2.9437    -0.8348    -6.1553 C.3     
  14 H14           -2.4461     0.1277    -6.0360 H       
  15 C15           -4.1917    -0.8210    -6.9998 C.2     
  16 N16           -4.9794     0.2047    -7.2071 N.2     
  17 C17           -5.9599    -0.2489    -8.0203 C.2     
  18 N18           -5.7124    -1.5109    -8.2567 N.2     
  19 O19           -4.6997    -1.8517    -7.6827 O.3     
  20 C20           -7.1033     0.5382    -8.5458 C.ar    
  21 C21           -7.2376     1.8842    -8.2121 C.ar    
  22 C22           -8.3028     2.6114    -8.7035 C.ar    
  23 C23           -9.2362     2.0061    -9.5256 C.ar    
  24 C24           -9.1076     0.6701    -9.8601 C.ar    
  25 C25           -8.0429    -0.0649    -9.3792 C.ar    
  26 C26           -2.0613    -2.0841    -6.2179 C.3     
  27 F27           -0.6776    -1.9037    -6.1176 F       
  28 F28           -2.4751    -3.1258    -7.0549 F       
  29 H29            1.6657    -1.3763     0.7852 H       
  30 H30            2.0834    -0.6837    -0.6874 H       
  31 H31           -0.0134     1.0120    -2.6787 H       
  32 H32           -1.1976     0.2758    -4.7082 H       
  33 H33           -3.0116    -2.8908    -2.5011 H       
  34 H34           -1.8209    -2.1597    -0.4736 H       
  35 H35           -6.5098     2.3575    -7.5698 H       
  36 H36           -8.4080     3.6548    -8.4455 H       
  37 H37          -10.0686     2.5786    -9.9074 H       
  38 H38           -9.8394     0.2023   -10.5020 H       
  39 H39           -7.9408    -1.1067    -9.6449 H       
@<TRIPOS>BOND
   1    1    2 am
   2    1   29 1
   3    1   30 1
   4    2    3 2
   5    2    4 2
   6    2    5 1
   7    5   10 ar
   8    5    6 ar
   9    6    7 ar
  10    6   31 1
  11    7    8 ar
  12    7   32 1
  13    8    9 ar
  14    8   11 1
  15    9   10 ar
  16    9   33 1
  17   10   34 1
  18   11   12 1
  19   11   26 1
  20   11   13 1
  21   13   14 1
  22   13   15 1
  23   13   26 1
  24   15   19 1
  25   15   16 2
  26   16   17 1
  27   17   18 2
  28   17   20 1
  29   18   19 1
  30   20   25 ar
  31   20   21 ar
  32   21   22 ar
  33   21   35 1
  34   22   23 ar
  35   22   36 1
  36   23   24 ar
  37   23   37 1
  38   24   25 ar
  39   24   38 1
  40   25   39 1
  41   26   27 1
  42   26   28 1

#	End of record

