#	Name: ASD01881025
#	Creating user name:	WinNT
#	Creation time:	15. 06. 2019 19:41

#	Modifying user name:	WinNT
#	Modification time:	15. 06. 2019 19:41

#	Program:	/corina/corina34_cracker 3.40 0067  02.08.2006

@<TRIPOS>MOLECULE
ASD01881025
  45   46    0    0    0
SMALL
NO_CHARGES


@<TRIPOS>ATOM
   1 O1             0.5743     1.9941    -0.6173 O.3     
   2 C2             0.5419     0.5387    -0.6790 C.3     
   3 C3             1.9997     0.1212    -0.4053 C.3     
   4 N4             2.7011     1.4004    -0.2174 N.am    
   5 C5             1.8211     2.4017    -0.3541 C.2     
   6 C6            -0.3882    -0.0232     0.3980 C.3     
   7 C7            -1.8305     0.3833     0.0891 C.3     
   8 C8            -2.7606    -0.1786     1.1661 C.3     
   9 C9            -4.2029     0.2279     0.8572 C.3     
  10 C10           -5.1330    -0.3340     1.9343 C.3     
  11 C11           -6.5752     0.0725     1.6253 C.3     
  12 O12            2.1275     3.5728    -0.2491 O.2     
  13 C13            4.0651     1.5478     0.0591 C.ar    
  14 C14            4.5127     1.5448     1.3734 C.ar    
  15 C15            5.8597     1.6899     1.6431 C.ar    
  16 C16            6.7617     1.8386     0.6059 C.ar    
  17 C17            6.3190     1.8420    -0.7044 C.ar    
  18 C18            4.9744     1.6916    -0.9808 C.ar    
  19 S19            3.3638     1.3565     2.6960 S.o2    
  20 O20            2.5698     0.2416     2.3144 O.2     
  21 O21            4.1753     1.3134     3.8617 O.2     
  22 C22            2.3801     2.8803     2.6613 C.3     
  23 H23            0.2282     0.2052    -1.6682 H       
  24 H24            2.0610    -0.4854     0.4982 H       
  25 H25            2.4100    -0.4186    -1.2587 H       
  26 H26           -0.3123    -1.1105     0.4124 H       
  27 H27           -0.0992     0.3741     1.3710 H       
  28 H28           -1.9063     1.4706     0.0747 H       
  29 H29           -2.1195    -0.0139    -0.8839 H       
  30 H30           -2.6847    -1.2659     1.1805 H       
  31 H31           -2.4716     0.2187     2.1391 H       
  32 H32           -4.2787     1.3152     0.8428 H       
  33 H33           -4.4919    -0.1694    -0.1158 H       
  34 H34           -5.0571    -1.4213     1.9486 H       
  35 H35           -4.8439     0.0632     2.9073 H       
  36 H36           -7.2379    -0.3278     2.3926 H       
  37 H37           -6.6511     1.1598     1.6110 H       
  38 H38           -6.8643    -0.3248     0.6523 H       
  39 H39            6.2086     1.6877     2.6652 H       
  40 H40            7.8143     1.9526     0.8193 H       
  41 H41            7.0260     1.9587    -1.5124 H       
  42 H42            4.6293     1.6943    -2.0041 H       
  43 H43            1.7686     2.8975     1.7592 H       
  44 H44            1.7344     2.9159     3.5387 H       
  45 H45            3.0463     3.7430     2.6652 H       
@<TRIPOS>BOND
   1    1    2 1
   2    1    5 1
   3    2    3 1
   4    2    6 1
   5    2   23 1
   6    3    4 1
   7    3   24 1
   8    3   25 1
   9    4    5 am
  10    4   13 1
  11    5   12 2
  12    6    7 1
  13    6   26 1
  14    6   27 1
  15    7    8 1
  16    7   28 1
  17    7   29 1
  18    8    9 1
  19    8   30 1
  20    8   31 1
  21    9   10 1
  22    9   32 1
  23    9   33 1
  24   10   11 1
  25   10   34 1
  26   10   35 1
  27   11   36 1
  28   11   37 1
  29   11   38 1
  30   13   14 ar
  31   13   18 ar
  32   14   15 ar
  33   14   19 1
  34   15   16 ar
  35   15   39 1
  36   16   17 ar
  37   16   40 1
  38   17   18 ar
  39   17   41 1
  40   18   42 1
  41   19   20 2
  42   19   21 2
  43   19   22 1
  44   22   43 1
  45   22   44 1
  46   22   45 1

#	End of record

