#	Name: ASD01812475
#	Creating user name:	WinNT
#	Creation time:	15. 06. 2019 19:28

#	Modifying user name:	WinNT
#	Modification time:	15. 06. 2019 19:28

#	Program:	/corina/corina34_cracker 3.40 0067  02.08.2006

@<TRIPOS>MOLECULE
ASD01812475
  57   61    0    0    0
SMALL
NO_CHARGES


@<TRIPOS>ATOM
   1 C1             0.3692     1.5914    -0.2472 C.ar    
   2 C2             0.3122     0.2191    -0.3983 C.ar    
   3 C3             1.4748    -0.5051    -0.5868 C.ar    
   4 C4             2.6944     0.1407    -0.6267 C.ar    
   5 C5             2.7610     1.5224    -0.4767 C.ar    
   6 C6             1.5914     2.2477    -0.2842 C.ar    
   7 N7             4.0138     2.1418    -0.5287 N.3     
   8 C8             3.9993     3.4714     0.0926 C.3     
   9 C9             2.8247     4.2700    -0.4873 C.3     
  10 O10            1.6139     3.5993    -0.1223 O.3     
  11 C11            5.0476     1.2902     0.0745 C.3     
  12 C12            6.4105     1.8094    -0.3047 C.ar    
  13 C13            7.0654     1.2889    -1.4058 C.ar    
  14 C14            7.0012     2.8095     0.4456 C.ar    
  15 C15            8.2501     3.2878     0.1002 C.ar    
  16 C16            8.9123     2.7634    -1.0016 C.ar    
  17 C17            8.3146     1.7627    -1.7559 C.ar    
  18 N18            3.8272     6.5156    -0.2206 N.am    
  19 C19            2.8264     5.6652     0.0823 C.2     
  20 O20            1.9270     6.0228     0.8134 O.2     
  21 N21           10.1800     3.2468    -1.3547 N.pl3   
  22 C22           10.9299     2.8259    -2.3983 C.2     
  23 C23           12.0796     3.5396    -2.3934 C.2     
  24 C24           12.0318     4.4260    -1.3119 C.2     
  25 N25           10.8915     4.2556    -0.6925 N.2     
  26 C26            3.7854     7.8387     0.2388 C.ar    
  27 C27            4.2999     8.8676    -0.5474 C.ar    
  28 C28            4.2555    10.1737    -0.0884 C.ar    
  29 C29            3.7021    10.4542     1.1474 C.ar    
  30 C30            3.1919     9.4338     1.9281 C.ar    
  31 C31            3.2268     8.1283     1.4746 C.ar    
  32 C32            3.6554    11.8760     1.6447 C.3     
  33 O33            4.8446     8.5902    -1.7620 O.3     
  34 H34           -0.5407     2.1555    -0.1044 H       
  35 H35           -0.6409    -0.2881    -0.3687 H       
  36 H36            1.4288    -1.5778    -0.7026 H       
  37 H37            3.6001    -0.4287    -0.7746 H       
  38 H38            3.8761     3.3701     1.1708 H       
  39 H39            4.9349     3.9868    -0.1245 H       
  40 H40            2.9085     4.3150    -1.5731 H       
  41 H41            4.9424     1.3041     1.1594 H       
  42 H42            4.9341     0.2686    -0.2884 H       
  43 H43            6.5997     0.5107    -1.9923 H       
  44 H44            6.4854     3.2172     1.3024 H       
  45 H45            8.7108     4.0691     0.6864 H       
  46 H46            8.8259     1.3553    -2.6155 H       
  47 H47            4.5763     6.2116    -0.7566 H       
  48 H48           10.6598     2.0580    -3.1081 H       
  49 H49           12.8911     3.4418    -3.0993 H       
  50 H50           12.8014     5.1324    -1.0380 H       
  51 H51            4.6535    10.9732    -0.6957 H       
  52 H52            2.7610     9.6576     2.8928 H       
  53 H53            2.8231     7.3337     2.0845 H       
  54 H54            2.7239    12.3426     1.3244 H       
  55 H55            3.7093    11.8821     2.7334 H       
  56 H56            4.4994    12.4317     1.2361 H       
  57 H57            4.2112     8.6159    -2.4923 H       
@<TRIPOS>BOND
   1    1    2 ar
   2    1    6 ar
   3    1   34 1
   4    2    3 ar
   5    2   35 1
   6    3    4 ar
   7    3   36 1
   8    4    5 ar
   9    4   37 1
  10    5    7 1
  11    5    6 ar
  12    6   10 1
  13    7   11 1
  14    7    8 1
  15    8    9 1
  16    8   38 1
  17    8   39 1
  18    9   10 1
  19    9   19 1
  20    9   40 1
  21   11   12 1
  22   11   41 1
  23   11   42 1
  24   12   14 ar
  25   12   13 ar
  26   13   17 ar
  27   13   43 1
  28   14   15 ar
  29   14   44 1
  30   15   16 ar
  31   15   45 1
  32   16   17 ar
  33   16   21 1
  34   17   46 1
  35   18   19 am
  36   18   26 1
  37   18   47 1
  38   19   20 2
  39   21   22 1
  40   21   25 1
  41   22   23 2
  42   22   48 1
  43   23   24 1
  44   23   49 1
  45   24   25 2
  46   24   50 1
  47   26   27 ar
  48   26   31 ar
  49   27   28 ar
  50   27   33 1
  51   28   29 ar
  52   28   51 1
  53   29   30 ar
  54   29   32 1
  55   30   31 ar
  56   30   52 1
  57   31   53 1
  58   32   54 1
  59   32   55 1
  60   32   56 1
  61   33   57 1

#	End of record

