#	Name: ASD00069091
#	Creating user name:	WinNT
#	Creation time:	15. 06. 2019 18:29

#	Modifying user name:	WinNT
#	Modification time:	15. 06. 2019 18:29

#	Program:	/corina/corina34_cracker 3.40 0067  02.08.2006

@<TRIPOS>MOLECULE
ASD00069091
  69   75    0    0    0
SMALL
NO_CHARGES


@<TRIPOS>ATOM
   1 N1            -0.0477     1.4655     0.0060 N.3     
   2 C2            -0.0323    -0.0046    -0.0028 C.3     
   3 C3             0.7186    -0.4943    -1.2438 C.3     
   4 O4             2.0366     0.0610    -1.2474 O.3     
   5 C5             2.0588     1.4910    -1.2398 C.3     
   6 C6             1.3215     2.0008     0.0013 C.3     
   7 C7            -0.8091     1.9771     1.1533 C.3     
   8 C8             1.2276     7.4186     2.5367 C.2     
   9 N9             1.5463     6.1143     2.8078 N.pl3   
  10 C10            0.6291     5.3232     2.1428 C.ar    
  11 C11           -0.2378     6.2048     1.4729 C.ar    
  12 N12            0.1779     7.4643     1.7514 N.2     
  13 C13           -1.2848     5.6868     0.7035 C.ar    
  14 C14           -1.4563     4.3349     0.6096 C.ar    
  15 C15           -0.6010     3.4651     1.2710 C.ar    
  16 C16            0.4384     3.9527     2.0351 C.ar    
  17 N17            3.4125     9.8821     4.1250 N.pl3   
  18 N18            3.0010     8.5752     3.8455 N.2     
  19 C19            1.9523     8.5953     3.0551 C.2     
  20 C20            1.6324    10.0017     2.7813 C.ar    
  21 C21            0.6480    10.6402     2.0249 C.ar    
  22 C22            0.6197    12.0207     1.9713 C.ar    
  23 C23            1.5669    12.7711     2.6673 C.ar    
  24 C24            2.5340    12.1571     3.4101 C.ar    
  25 C25            2.5836    10.7669     3.4799 C.ar    
  26 N26           -0.3645    12.6692     1.2143 N.am    
  27 C27           -0.8008    12.1195     0.0636 C.2     
  28 C28           -1.9421    12.7533    -0.6891 C.3     
  29 O29           -0.2747    11.1146    -0.3661 O.2     
  30 C30           -2.3910    12.0817    -1.9884 C.3     
  31 C31           -3.2671    11.9897    -0.7375 C.3     
  32 F32           -2.8311    12.9110    -3.0256 F       
  33 F33           -1.7104    10.9262    -2.3869 F       
  34 C34            4.1681    10.0441     6.4464 C.3     
  35 C35            4.5460    10.2498     4.9771 C.3     
  36 O36            5.6699     9.4276     4.6562 O.3     
  37 C37            6.8440     9.7220     5.4158 C.3     
  38 C38            6.5584     9.4951     6.9026 C.3     
  39 C39            5.3772    10.3729     7.3274 C.3     
  40 H40            0.4698    -0.3686     0.8937 H       
  41 H41           -1.0556    -0.3792    -0.0251 H       
  42 H42            0.7822    -1.5823    -1.2250 H       
  43 H43            0.1869    -0.1755    -2.1403 H       
  44 H44            3.0916     1.8388    -1.2181 H       
  45 H45            1.5660     1.8675    -2.1362 H       
  46 H46            1.2863     3.0901    -0.0181 H       
  47 H47            1.8451     1.6689     0.8978 H       
  48 H48           -1.8691     1.7689     1.0079 H       
  49 H49           -0.4647     1.4888     2.0649 H       
  50 H50            2.2789     5.8040     3.3626 H       
  51 H51           -1.9568     6.3546     0.1850 H       
  52 H52           -2.2659     3.9389     0.0145 H       
  53 H53            1.1012     3.2711     2.5474 H       
  54 H54           -0.0856    10.0596     1.4854 H       
  55 H55            1.5353    13.8495     2.6179 H       
  56 H56            3.2618    12.7502     3.9440 H       
  57 H57           -0.7320    13.5138     1.5181 H       
  58 H58           -1.9894    13.8413    -0.6425 H       
  59 H59           -3.3132    11.0288    -0.2249 H       
  60 H60           -4.1863    12.5753    -0.7226 H       
  61 H61            3.3391    10.7029     6.7049 H       
  62 H62            3.8733     9.0067     6.6049 H       
  63 H63            4.8016    11.2962     4.8106 H       
  64 H64            7.6561     9.0682     5.0978 H       
  65 H65            7.1298    10.7615     5.2550 H       
  66 H66            6.3119     8.4467     7.0703 H       
  67 H67            7.4389     9.7613     7.4874 H       
  68 H68            5.6415    11.4235     7.2064 H       
  69 H69            5.1325    10.1750     8.3710 H       
@<TRIPOS>BOND
   1    1    2 1
   2    1    6 1
   3    1    7 1
   4    2    3 1
   5    2   40 1
   6    2   41 1
   7    3    4 1
   8    3   42 1
   9    3   43 1
  10    4    5 1
  11    5    6 1
  12    5   44 1
  13    5   45 1
  14    6   46 1
  15    6   47 1
  16    7   15 1
  17    7   48 1
  18    7   49 1
  19    8    9 1
  20    8   12 2
  21    8   19 1
  22    9   10 1
  23    9   50 1
  24   10   11 ar
  25   10   16 ar
  26   11   12 1
  27   11   13 ar
  28   13   14 ar
  29   13   51 1
  30   14   15 ar
  31   14   52 1
  32   15   16 ar
  33   16   53 1
  34   17   18 1
  35   17   25 1
  36   17   35 1
  37   18   19 2
  38   19   20 1
  39   20   21 ar
  40   20   25 ar
  41   21   22 ar
  42   21   54 1
  43   22   23 ar
  44   22   26 1
  45   23   24 ar
  46   23   55 1
  47   24   25 ar
  48   24   56 1
  49   26   27 am
  50   26   57 1
  51   27   28 1
  52   27   29 2
  53   28   30 1
  54   28   31 1
  55   28   58 1
  56   30   31 1
  57   30   32 1
  58   30   33 1
  59   31   59 1
  60   31   60 1
  61   34   35 1
  62   34   39 1
  63   34   61 1
  64   34   62 1
  65   35   36 1
  66   35   63 1
  67   36   37 1
  68   37   38 1
  69   37   64 1
  70   37   65 1
  71   38   39 1
  72   38   66 1
  73   38   67 1
  74   39   68 1
  75   39   69 1

#	End of record

