#	Name: ASD01140469
#	Creating user name:	WinNT
#	Creation time:	15. 06. 2019 19:00

#	Modifying user name:	WinNT
#	Modification time:	15. 06. 2019 19:00

#	Program:	/corina/corina34_cracker 3.40 0067  02.08.2006

@<TRIPOS>MOLECULE
ASD01140469
  40   43    0    0    0
SMALL
NO_CHARGES


@<TRIPOS>ATOM
   1 C1            -0.0169     1.3829    -0.0733 C.ar    
   2 C2             0.0080     0.0098    -0.2787 C.ar    
   3 C3             1.2016    -0.6737    -0.3340 C.ar    
   4 C4             2.4050     0.0210    -0.1822 C.ar    
   5 C5             2.3753     1.4192     0.0264 C.ar    
   6 C6             1.1557     2.0905     0.0793 C.ar    
   7 N7             3.5942    -0.6120    -0.2296 N.2     
   8 C8             4.7227     0.0344    -0.0876 C.2     
   9 N9             4.7879     1.3870     0.1179 N.am    
  10 C10            3.6553     2.1250     0.1834 C.2     
  11 O11            3.6950     3.3280     0.3654 O.2     
  12 C12            5.9857    -0.7304    -0.1513 C.ar    
  13 C13            6.0336     2.0098     0.2611 C.ar    
  14 C14            6.4874     2.8900    -0.7125 C.ar    
  15 C15            7.7167     3.5028    -0.5683 C.ar    
  16 C16            8.4956     3.2402     0.5437 C.ar    
  17 C17            8.0467     2.3639     1.5147 C.ar    
  18 C18            6.8154     1.7530     1.3797 C.ar    
  19 C19            6.0889    -1.9678     0.4865 C.ar    
  20 C20            7.2708    -2.6765     0.4231 C.ar    
  21 C21            8.3524    -2.1634    -0.2707 C.ar    
  22 C22            8.2567    -0.9375    -0.9052 C.ar    
  23 C23            7.0789    -0.2212    -0.8545 C.ar    
  24 C24            9.8367     3.9102     0.6976 C.3     
  25 H25           -0.9635     1.9016    -0.0372 H       
  26 H26           -0.9208    -0.5288    -0.3962 H       
  27 H27            1.2082    -1.7418    -0.4936 H       
  28 H28            1.1295     3.1584     0.2388 H       
  29 H29            5.8799     3.0949    -1.5816 H       
  30 H30            8.0703     4.1874    -1.3251 H       
  31 H31            8.6575     2.1607     2.3819 H       
  32 H32            6.4654     1.0687     2.1383 H       
  33 H33            5.2456    -2.3692     1.0288 H       
  34 H34            7.3522    -3.6338     0.9165 H       
  35 H35            9.2755    -2.7221    -0.3170 H       
  36 H36            9.1047    -0.5427    -1.4451 H       
  37 H37            7.0055     0.7355    -1.3502 H       
  38 H38            9.7131     4.8522     1.2319 H       
  39 H39           10.5060     3.2588     1.2596 H       
  40 H40           10.2610     4.1043    -0.2875 H       
@<TRIPOS>BOND
   1    1    2 ar
   2    1    6 ar
   3    1   25 1
   4    2    3 ar
   5    2   26 1
   6    3    4 ar
   7    3   27 1
   8    4    5 ar
   9    4    7 1
  10    5    6 ar
  11    5   10 1
  12    6   28 1
  13    7    8 2
  14    8    9 1
  15    8   12 1
  16    9   10 am
  17    9   13 1
  18   10   11 2
  19   12   19 ar
  20   12   23 ar
  21   13   14 ar
  22   13   18 ar
  23   14   15 ar
  24   14   29 1
  25   15   16 ar
  26   15   30 1
  27   16   17 ar
  28   16   24 1
  29   17   18 ar
  30   17   31 1
  31   18   32 1
  32   19   20 ar
  33   19   33 1
  34   20   21 ar
  35   20   34 1
  36   21   22 ar
  37   21   35 1
  38   22   23 ar
  39   22   36 1
  40   23   37 1
  41   24   38 1
  42   24   39 1
  43   24   40 1

#	End of record

