#	Name: ASD01208946
#	Creating user name:	WinNT
#	Creation time:	15. 06. 2019 19:10

#	Modifying user name:	WinNT
#	Modification time:	15. 06. 2019 19:10

#	Program:	/corina/corina34_cracker 3.40 0067  02.08.2006

@<TRIPOS>MOLECULE
ASD01208946
  63   67    0    0    0
SMALL
NO_CHARGES


@<TRIPOS>ATOM
   1 C1            -2.2073     1.6115    -0.9279 C.3     
   2 C2            -2.1670     0.0889    -1.0905 C.3     
   3 C3            -1.4170    -0.2561    -2.3808 C.3     
   4 C4            -2.1031     0.4363    -3.5613 C.3     
   5 C5            -2.8629     2.2317    -2.1645 C.3     
   6 C6            -1.4430    -0.5345     0.1046 C.3     
   7 C7            -1.5300    -2.0593     0.0149 C.3     
   8 C8            -0.7065    -2.6752     1.1166 C.2     
   9 O9            -1.2489    -3.3085     1.9974 O.2     
  10 N10           -2.9267    -2.4780     0.1568 N.pl3   
  11 C11           -3.6466    -3.1759    -0.7778 C.ar    
  12 C12           -4.9340    -3.3665    -0.2388 C.ar    
  13 C13           -4.9248    -2.7339     1.0767 C.2     
  14 N14           -3.7376    -2.2348     1.2701 N.2     
  15 N15            0.6325    -2.5222     1.1230 N.am    
  16 C16           -3.3517    -3.6781    -2.0419 C.ar    
  17 C17           -4.3228    -4.3563    -2.7523 C.ar    
  18 C18           -5.5953    -4.5413    -2.2137 C.ar    
  19 C19           -5.9021    -4.0571    -0.9762 C.ar    
  20 S20           -7.5147    -4.2985    -0.3085 S.o2    
  21 O21           -7.9223    -3.0003     0.1013 O.2     
  22 O22           -8.2149    -4.9985    -1.3278 O.2     
  23 C23           -7.2523    -5.3679     1.1330 C.3     
  24 C24           -8.4923    -5.8659     1.8783 C.3     
  25 C25           -7.6801    -6.8321     1.0137 C.3     
  26 C26            1.4083    -3.1798     2.0875 C.2     
  27 C27            0.9244    -4.0235     3.1001 C.2     
  28 C28            1.9837    -4.4576     3.8199 C.2     
  29 N29            3.0976    -3.9124     3.2873 N.pl3   
  30 N30            2.7144    -3.1190     2.1984 N.2     
  31 O31           -4.0356    -4.8469    -3.9867 O.3     
  32 C32           -2.7140    -4.6235    -4.4823 C.3     
  33 F33           -2.4708    -3.2480    -4.5585 F       
  34 F34           -1.7859    -5.2140    -3.6178 F       
  35 O35           -2.1344     1.8465    -3.3320 O.3     
  36 C36            4.4683    -4.1190     3.7615 C.3     
  37 H37           -2.7869     1.8679    -0.0411 H       
  38 H38           -1.1919     1.9937    -0.8235 H       
  39 H39           -3.1841    -0.2991    -1.1451 H       
  40 H40           -0.3856     0.0884    -2.3058 H       
  41 H41           -1.4314    -1.3353    -2.5330 H       
  42 H42           -1.5485     0.2291    -4.4765 H       
  43 H43           -3.1218     0.0615    -3.6605 H       
  44 H44           -3.8915     1.8804    -2.2454 H       
  45 H45           -2.8557     3.3179    -2.0735 H       
  46 H46           -0.3967    -0.2290     0.0952 H       
  47 H47           -1.9115    -0.1976     1.0293 H       
  48 H48           -1.1484    -2.3888    -0.9515 H       
  49 H49           -5.7534    -2.6913     1.7681 H       
  50 H50            1.0593    -1.9570     0.4603 H       
  51 H51           -2.3683    -3.5377    -2.4656 H       
  52 H52           -6.3446    -5.0731    -2.7812 H       
  53 H53           -6.3633    -5.1497     1.7247 H       
  54 H54           -8.4189    -5.9755     2.9603 H       
  55 H55           -9.4657    -5.5508     1.5025 H       
  56 H56           -8.1192    -7.1527     0.0690 H       
  57 H57           -7.0724    -7.5774     1.5268 H       
  58 H58           -0.1102    -4.2802     3.2734 H       
  59 H59            1.9453    -5.1223     4.6703 H       
  60 H60           -2.6185    -5.0650    -5.4743 H       
  61 H61            4.9036    -4.9783     3.2513 H       
  62 H62            5.0637    -3.2309     3.5498 H       
  63 H63            4.4574    -4.3016     4.8360 H       
@<TRIPOS>BOND
   1    1    2 1
   2    1    5 1
   3    1   37 1
   4    1   38 1
   5    2    3 1
   6    2    6 1
   7    2   39 1
   8    3    4 1
   9    3   40 1
  10    3   41 1
  11    4   35 1
  12    4   42 1
  13    4   43 1
  14    5   35 1
  15    5   44 1
  16    5   45 1
  17    6    7 1
  18    6   46 1
  19    6   47 1
  20    7    8 1
  21    7   10 1
  22    7   48 1
  23    8    9 2
  24    8   15 am
  25   10   11 1
  26   10   14 1
  27   11   12 ar
  28   11   16 ar
  29   12   13 1
  30   12   19 ar
  31   13   14 2
  32   13   49 1
  33   15   26 1
  34   15   50 1
  35   16   17 ar
  36   16   51 1
  37   17   18 ar
  38   17   31 1
  39   18   19 ar
  40   18   52 1
  41   19   20 1
  42   20   21 2
  43   20   22 2
  44   20   23 1
  45   23   24 1
  46   23   25 1
  47   23   53 1
  48   24   25 1
  49   24   54 1
  50   24   55 1
  51   25   56 1
  52   25   57 1
  53   26   27 1
  54   26   30 2
  55   27   28 2
  56   27   58 1
  57   28   29 1
  58   28   59 1
  59   29   30 1
  60   29   36 1
  61   31   32 1
  62   32   33 1
  63   32   34 1
  64   32   60 1
  65   36   61 1
  66   36   62 1
  67   36   63 1

#	End of record

