#	Name: ASD01180040
#	Creating user name:	WinNT
#	Creation time:	15. 06. 2019 19:06

#	Modifying user name:	WinNT
#	Modification time:	15. 06. 2019 19:06

#	Program:	/corina/corina34_cracker 3.40 0067  02.08.2006

@<TRIPOS>MOLECULE
ASD01180040
  45   47    0    0    0
SMALL
NO_CHARGES


@<TRIPOS>ATOM
   1 C1            -0.0158     1.3126     0.0093 C.ar    
   2 N2             0.0021    -0.0041     0.0020 N.ar    
   3 C3             1.1561    -0.6679    -0.0126 C.ar    
   4 C4             2.3515     0.0561    -0.0202 C.ar    
   5 C5             2.2813     1.4376    -0.0121 C.ar    
   6 N6             1.0939     2.0240     0.0025 N.ar    
   7 C7             3.5406     2.2653    -0.0192 C.3     
   8 F8             3.9182     2.5285    -1.3403 F       
   9 F9             3.3091     3.4724     0.6489 F       
  10 F10            4.5637     1.5633     0.6271 F       
  11 S11           -1.5674     2.1473     0.0211 S.o     
  12 O12           -2.4515     1.1866    -0.5399 O.2     
  13 C13           -1.9185     2.3310     1.7913 C.3     
  14 C14           -3.2565     3.0504     1.9739 C.3     
  15 C15            1.1728    -2.1509    -0.0202 C.ar    
  16 C16           -0.0246    -2.8631    -0.0121 C.ar    
  17 C17           -0.0021    -4.2479    -0.0198 C.ar    
  18 C18            1.2111    -4.9227    -0.0351 C.ar    
  19 C19            2.3992    -4.2166    -0.0427 C.ar    
  20 C20            2.3864    -2.8361    -0.0414 C.ar    
  21 O21           -1.1680    -4.9463    -0.0119 O.3     
  22 C22           -1.0703    -6.3719    -0.0206 C.3     
  23 C23           -2.4534    -6.9703    -0.0100 C.ar    
  24 C24           -3.0996    -7.2383    -1.2022 C.ar    
  25 C25           -4.3683    -7.7871    -1.1925 C.ar    
  26 C26           -4.9906    -8.0684     0.0094 C.ar    
  27 C27           -4.3439    -7.8012     1.2016 C.ar    
  28 C28           -3.0735    -7.2564     1.1919 C.ar    
  29 H29            3.3055    -0.4500    -0.0317 H       
  30 H30           -1.9690     1.3463     2.2558 H       
  31 H31           -1.1257     2.9138     2.2603 H       
  32 H32           -4.0492     2.4676     1.5048 H       
  33 H33           -3.4674     3.1607     3.0376 H       
  34 H34           -3.2059     4.0351     1.5094 H       
  35 H35           -0.9676    -2.3369     0.0005 H       
  36 H36            1.2264    -6.0026    -0.0407 H       
  37 H37            3.3403    -4.7464    -0.0542 H       
  38 H38            3.3164    -2.2873    -0.0522 H       
  39 H39           -0.5417    -6.6944    -0.9176 H       
  40 H40           -0.5240    -6.7040     0.8622 H       
  41 H41           -2.6135    -7.0185    -2.1413 H       
  42 H42           -4.8735    -7.9958    -2.1240 H       
  43 H43           -5.9820    -8.4965     0.0170 H       
  44 H44           -4.8302    -8.0207     2.1407 H       
  45 H45           -2.5668    -7.0511     2.1233 H       
@<TRIPOS>BOND
   1    1    2 ar
   2    1    6 ar
   3    1   11 1
   4    2    3 ar
   5    3    4 ar
   6    3   15 1
   7    4    5 ar
   8    4   29 1
   9    5    6 ar
  10    5    7 1
  11    7    8 1
  12    7    9 1
  13    7   10 1
  14   11   12 2
  15   11   13 1
  16   13   14 1
  17   13   30 1
  18   13   31 1
  19   14   32 1
  20   14   33 1
  21   14   34 1
  22   15   16 ar
  23   15   20 ar
  24   16   17 ar
  25   16   35 1
  26   17   18 ar
  27   17   21 1
  28   18   19 ar
  29   18   36 1
  30   19   20 ar
  31   19   37 1
  32   20   38 1
  33   21   22 1
  34   22   23 1
  35   22   39 1
  36   22   40 1
  37   23   24 ar
  38   23   28 ar
  39   24   25 ar
  40   24   41 1
  41   25   26 ar
  42   25   42 1
  43   26   27 ar
  44   26   43 1
  45   27   28 ar
  46   27   44 1
  47   28   45 1

#	End of record

