#	Name: ASD01915004
#	Creating user name:	WinNT
#	Creation time:	15. 06. 2019 20:04

#	Modifying user name:	WinNT
#	Modification time:	15. 06. 2019 20:04

#	Program:	/corina/corina34_cracker 3.40 0067  02.08.2006

@<TRIPOS>MOLECULE
ASD01915004
  43   46    0    0    0
SMALL
NO_CHARGES


@<TRIPOS>ATOM
   1 C1            -0.2246     1.4604    -1.1228 C.ar    
   2 C2            -0.2360     0.0852    -1.2764 C.ar    
   3 C3             0.9612    -0.6064    -1.1407 C.ar    
   4 C4             2.1178     0.0946    -0.8586 C.ar    
   5 N5             2.0959     1.4066    -0.7178 N.ar    
   6 C6             0.9761     2.0991    -0.8398 C.ar    
   7 O7             1.0000     3.4473    -0.6869 O.3     
   8 C8             2.2652     4.0450    -0.3970 C.3     
   9 C9             2.0971     5.5365    -0.2623 C.2     
  10 C10            0.8952     6.2455    -0.3913 C.2     
  11 N11            3.0497     6.4001     0.0020 N.2     
  12 C12            1.2323     7.5540    -0.1920 C.2     
  13 C13            0.4247     8.7832    -0.1928 C.2     
  14 N14            2.5863     7.5870     0.0598 N.pl3   
  15 C15            3.2733     8.8502     0.3547 C.3     
  16 C16            2.5573     9.9929    -0.3639 C.3     
  17 N17            1.1092     9.9526    -0.1732 N.am    
  18 O18           -0.7912     8.7519    -0.2105 O.2     
  19 C19            0.4143    11.1484     0.0398 C.ar    
  20 C20           -0.8591    12.5818     1.4804 C.ar    
  21 C21           -0.1740    11.4008     1.2722 C.ar    
  22 C22            0.3168    12.0870    -0.9791 C.ar    
  23 C23           -0.3692    13.2667    -0.7667 C.ar    
  24 C24           -0.9591    13.5142     0.4614 C.ar    
  25 F25           -1.6297    14.6688     0.6672 F       
  26 C26            3.2525     9.1029     1.8636 C.3     
  27 Cl27           1.0032    -2.3322    -1.3229 Cl      
  28 H28           -1.1363     2.0300    -1.2260 H       
  29 H29           -1.1546    -0.4384    -1.4964 H       
  30 H30            3.0513    -0.4378    -0.7516 H       
  31 H31            2.6543     3.6374     0.5361 H       
  32 H32            2.9628     3.8295    -1.2064 H       
  33 H33           -0.0851     5.8443    -0.6023 H       
  34 H34            4.3053     8.7926     0.0088 H       
  35 H35            2.9362    10.9412     0.0170 H       
  36 H36            2.7759     9.9308    -1.4299 H       
  37 H37           -1.3170    12.7783     2.4385 H       
  38 H38           -0.0962    10.6739     2.0671 H       
  39 H39            0.7774    11.8946    -1.9369 H       
  40 H40           -0.4452    13.9968    -1.5588 H       
  41 H41            3.7600     8.2854     2.3759 H       
  42 H42            3.7628    10.0410     2.0819 H       
  43 H43            2.2200     9.1622     2.2079 H       
@<TRIPOS>BOND
   1    1    2 ar
   2    1    6 ar
   3    1   28 1
   4    2    3 ar
   5    2   29 1
   6    3    4 ar
   7    3   27 1
   8    4    5 ar
   9    4   30 1
  10    5    6 ar
  11    6    7 1
  12    7    8 1
  13    8    9 1
  14    8   31 1
  15    8   32 1
  16    9   11 2
  17    9   10 1
  18   10   12 2
  19   10   33 1
  20   11   14 1
  21   12   14 1
  22   12   13 1
  23   13   17 am
  24   13   18 2
  25   14   15 1
  26   15   16 1
  27   15   26 1
  28   15   34 1
  29   16   17 1
  30   16   35 1
  31   16   36 1
  32   17   19 1
  33   19   22 ar
  34   19   21 ar
  35   20   21 ar
  36   20   24 ar
  37   20   37 1
  38   21   38 1
  39   22   23 ar
  40   22   39 1
  41   23   24 ar
  42   23   40 1
  43   24   25 1
  44   26   41 1
  45   26   42 1
  46   26   43 1

#	End of record

