#	Name: ASD01001112
#	Creating user name:	WinNT
#	Creation time:	15. 06. 2019 18:55

#	Modifying user name:	WinNT
#	Modification time:	15. 06. 2019 18:55

#	Program:	/corina/corina34_cracker 3.40 0067  02.08.2006

@<TRIPOS>MOLECULE
ASD01001112
  49   51    0    0    0
SMALL
NO_CHARGES


@<TRIPOS>ATOM
   1 C1            -0.8124     1.3045     0.6513 C.2     
   2 C2            -0.6113    -0.0112     0.5370 C.2     
   3 C3            -1.8388    -0.7347     0.2433 C.2     
   4 C4            -2.9342     0.0741     0.1385 C.2     
   5 S5            -2.5071     1.7007     0.3973 S.3     
   6 N6            -4.2174    -0.3694    -0.1363 N.am    
   7 C7            -5.2323     0.5136    -0.2187 C.2     
   8 C8            -1.8943    -2.1899     0.0756 C.2     
   9 O9            -1.9953    -2.9114     1.0506 O.2     
  10 N10           -1.8335    -2.7289    -1.1582 N.am    
  11 C11           -1.8229    -1.8597    -2.3375 C.3     
  12 C12           -1.7779    -4.1838    -1.3201 C.3     
  13 C13           -0.3780    -1.6118    -2.7754 C.3     
  14 C14           -3.1998    -4.7419    -1.4073 C.3     
  15 C15           -6.5896     0.0446    -0.5094 C.2     
  16 O16           -5.0213     1.7006    -0.0516 O.2     
  17 C17           -7.6969     0.8388    -0.6178 C.2     
  18 C18           -8.8446     0.1359    -0.8975 C.2     
  19 C19           -8.6855    -1.1877    -1.0147 C.2     
  20 S20           -7.0539    -1.6292    -0.7822 S.3     
  21 C21            0.2606     2.3269     0.9629 C.3     
  22 C22            1.4794     2.0938     0.0717 C.3     
  23 C23            2.4360     1.1311     0.7698 C.3     
  24 C24            1.6434     0.1224     1.5982 C.3     
  25 C25            0.7378    -0.6943     0.6816 C.3     
  26 H26           -4.3855    -1.3153    -0.2694 H       
  27 H27           -2.3708    -2.3404    -3.1480 H       
  28 H28           -2.2965    -0.9091    -2.0925 H       
  29 H29           -1.2354    -4.4274    -2.2335 H       
  30 H30           -1.2662    -4.6253    -0.4649 H       
  31 H31            0.0853    -2.5587    -3.0524 H       
  32 H32           -0.3686    -0.9383    -3.6324 H       
  33 H33            0.1786    -1.1617    -1.9534 H       
  34 H34           -3.7176    -4.5663    -0.4643 H       
  35 H35           -3.7367    -4.2440    -2.2148 H       
  36 H36           -3.1583    -5.8130    -1.6049 H       
  37 H37           -7.6725     1.9115    -0.4954 H       
  38 H38           -9.8046     0.6167    -1.0140 H       
  39 H39           -9.4828    -1.8832    -1.2312 H       
  40 H40           -0.1314     3.3283     0.7850 H       
  41 H41            0.5543     2.2357     2.0086 H       
  42 H42            1.1595     1.6646    -0.8777 H       
  43 H43            1.9851     3.0424    -0.1088 H       
  44 H44            3.0265     0.6015     0.0222 H       
  45 H45            3.1022     1.6933     1.4242 H       
  46 H46            2.3334    -0.5448     2.1148 H       
  47 H47            1.0350     0.6526     2.3308 H       
  48 H48            0.5960    -1.6883     1.1057 H       
  49 H49            1.2038    -0.7851    -0.2996 H       
@<TRIPOS>BOND
   1    1    2 2
   2    1   21 1
   3    1    5 1
   4    2    3 1
   5    2   25 1
   6    3    4 2
   7    3    8 1
   8    4    5 1
   9    4    6 1
  10    6    7 am
  11    6   26 1
  12    7   15 1
  13    7   16 2
  14    8    9 2
  15    8   10 am
  16   10   11 1
  17   10   12 1
  18   11   13 1
  19   11   27 1
  20   11   28 1
  21   12   14 1
  22   12   29 1
  23   12   30 1
  24   13   31 1
  25   13   32 1
  26   13   33 1
  27   14   34 1
  28   14   35 1
  29   14   36 1
  30   15   17 2
  31   15   20 1
  32   17   18 1
  33   17   37 1
  34   18   19 2
  35   18   38 1
  36   19   20 1
  37   19   39 1
  38   21   22 1
  39   21   40 1
  40   21   41 1
  41   22   23 1
  42   22   42 1
  43   22   43 1
  44   23   24 1
  45   23   44 1
  46   23   45 1
  47   24   25 1
  48   24   46 1
  49   24   47 1
  50   25   48 1
  51   25   49 1

#	End of record

