#	Name: ASD01917953
#	Creating user name:	WinNT
#	Creation time:	15. 06. 2019 20:10

#	Modifying user name:	WinNT
#	Modification time:	15. 06. 2019 20:10

#	Program:	/corina/corina34_cracker 3.40 0067  02.08.2006

@<TRIPOS>MOLECULE
ASD01917953
  42   45    0    0    0
SMALL
NO_CHARGES


@<TRIPOS>ATOM
   1 N1             4.7270    -0.5760    -2.1727 N.ar    
   2 C2             5.2111     0.1538    -3.1575 C.ar    
   3 N3             5.1524     1.4703    -3.1427 N.ar    
   4 C4             4.5991     2.1138    -2.1280 C.ar    
   5 C5             4.0756     1.3802    -1.0681 C.ar    
   6 C6             4.1581    -0.0075    -1.1225 C.ar    
   7 O7             3.4992     2.0032    -0.0067 O.3     
   8 C8             3.5512     3.3615     0.0419 C.2     
   9 N9             2.4082     5.4385    -0.0252 N.pl3   
  10 C10            2.4051     4.0768    -0.0678 C.2     
  11 C11            4.7887     3.9986     0.2105 C.2     
  12 C12            4.8385     5.3858     0.2597 C.2     
  13 C13            3.5840     6.1298     0.1323 C.2     
  14 C14            6.1193     6.0897     0.4361 C.2     
  15 N15            6.1475     7.4364     0.4815 N.am    
  16 C16            7.3421     8.0993     0.7536 C.ar    
  17 N17            8.4664     7.4082     0.8595 N.ar    
  18 C18            7.3438     9.4812     0.9058 C.ar    
  19 C19            8.5376    10.1272     1.1754 C.ar    
  20 C20            9.6930     9.3655     1.2839 C.ar    
  21 C21            9.6187     7.9967     1.1157 C.ar    
  22 O22            7.1522     5.4559     0.5408 O.2     
  23 C23            1.4321     6.3845    -0.1087 C.2     
  24 N24            2.0095     7.5536    -0.0124 N.2     
  25 N25            3.2802     7.4125     0.1358 N.2     
  26 C26           10.8704     7.1647     1.2265 C.3     
  27 C27           10.6626     6.0676     2.2724 C.3     
  28 H28            5.6695    -0.3413    -4.0009 H       
  29 H29            4.5547     3.1928    -2.1223 H       
  30 H30            3.7632    -0.6117    -0.3192 H       
  31 H31            1.4677     3.5552    -0.1923 H       
  32 H32            5.6940     3.4167     0.3014 H       
  33 H33            5.3360     7.9441     0.3247 H       
  34 H34            6.4260    10.0430     0.8144 H       
  35 H35            8.5697    11.1997     1.2983 H       
  36 H36           10.6408     9.8388     1.4937 H       
  37 H37            0.3753     6.2025    -0.2371 H       
  38 H38           11.0906     6.7092     0.2610 H       
  39 H39           11.7035     7.8000     1.5270 H       
  40 H40           10.4424     6.5230     3.2379 H       
  41 H41            9.8294     5.4322     1.9719 H       
  42 H42           11.5679     5.4658     2.3526 H       
@<TRIPOS>BOND
   1    1    2 ar
   2    1    6 ar
   3    2    3 ar
   4    2   28 1
   5    3    4 ar
   6    4    5 ar
   7    4   29 1
   8    5    6 ar
   9    5    7 1
  10    6   30 1
  11    7    8 1
  12    8   11 1
  13    8   10 2
  14    9   10 1
  15    9   23 1
  16    9   13 1
  17   10   31 1
  18   11   12 2
  19   11   32 1
  20   12   13 1
  21   12   14 1
  22   13   25 2
  23   14   15 am
  24   14   22 2
  25   15   16 1
  26   15   33 1
  27   16   18 ar
  28   16   17 ar
  29   17   21 ar
  30   18   19 ar
  31   18   34 1
  32   19   20 ar
  33   19   35 1
  34   20   21 ar
  35   20   36 1
  36   21   26 1
  37   23   24 2
  38   23   37 1
  39   24   25 1
  40   26   27 1
  41   26   38 1
  42   26   39 1
  43   27   40 1
  44   27   41 1
  45   27   42 1

#	End of record

