#	Name: ASD06590042
#	Creating user name:	WinNT
#	Creation time:	15. 06. 2019 21:06

#	Modifying user name:	WinNT
#	Modification time:	15. 06. 2019 21:06

#	Program:	/corina/corina34_cracker 3.40 0067  02.08.2006

@<TRIPOS>MOLECULE
ASD06590042
 320  320    0    0    0
SMALL
NO_CHARGES


@<TRIPOS>ATOM
   1 C1            -3.6269     2.8694    18.0501 C.2     
   2 O2            -2.8460     3.0006    17.1314 O.2     
   3 N3            -1.6503     2.7766    19.4549 N.am    
   4 C4            -3.1144     2.7262    19.4600 C.3     
   5 C5            -3.6610     3.8678    20.3198 C.3     
   6 C6            -6.9578     2.9562    16.4466 C.2     
   7 O7            -7.5561     2.8156    17.4922 O.2     
   8 N8            -4.9532     2.8573    17.8107 N.am    
   9 C9            -5.4516     3.0025    16.4408 C.3     
  10 C10           -9.5980     2.5637    13.9490 C.2     
  11 O11           -8.8048     2.2981    13.0708 O.2     
  12 N12           -7.6401     3.0709    15.2900 N.am    
  13 C13           -9.1044     3.0258    15.2957 C.3     
  14 C14           -9.6564     4.4222    15.5896 C.3     
  15 C15           -9.2588     4.8400    17.0067 C.3     
  16 C16           -9.8109     6.2363    17.3006 C.3     
  17 N17           -9.4301     6.6364    18.6575 N.pl3   
  18 C18           -9.8165     7.8617    19.1468 C.2     
  19 N19           -9.4778     8.2176    20.3541 N.2     
  20 N20          -10.5602     8.7115    18.3628 N.pl3   
  21 C21          -12.7997     2.5095    12.1856 C.2     
  22 O22          -13.3424     3.1842    13.0349 O.2     
  23 N23          -10.9210     2.4455    13.7204 N.am    
  24 C24          -11.4009     1.9962    12.4111 C.3     
  25 C25          -11.4055     0.4669    12.3669 C.3     
  26 O26          -12.3552    -0.0340    13.3099 O.3     
  27 C27          -15.7508     1.5466    11.4042 C.2     
  28 O28          -15.2763     0.5398    11.8861 O.2     
  29 N29          -13.4477     2.2188    11.0401 N.am    
  30 C30          -14.8448     2.6237    10.8659 C.3     
  31 C31          -15.1325     2.8357     9.3782 C.3     
  32 C32          -14.3067     3.9875     8.8660 C.2     
  33 O33          -13.5033     4.5245     9.5913 O.2     
  34 O34          -14.4636     4.4169     7.6039 O.3     
  35 C35          -19.3089     0.7362    11.1880 C.2     
  36 O36          -19.5328     1.6292    10.3986 O.2     
  37 N37          -17.0885     1.7020    11.3503 N.am    
  38 C38          -17.9693     0.6549    11.8736 C.3     
  39 C39          -18.1546     0.8500    13.3798 C.3     
  40 C40          -16.7945     0.7684    14.0758 C.3     
  41 O41          -18.7395     2.1304    13.6258 O.3     
  42 C42          -22.5979    -0.7662    11.7245 C.2     
  43 O43          -22.2366    -1.3319    12.7347 O.2     
  44 N44          -20.2580    -0.1836    11.4521 N.am    
  45 C45          -21.5917    -0.0505    10.8607 C.3     
  46 C46          -21.5923    -0.6662     9.4601 C.3     
  47 C47          -20.6633     0.1385     8.5489 C.3     
  48 C48          -20.6639    -0.4772     7.1482 C.3     
  49 N49          -19.7744     0.2933     6.2757 N.pl3   
  50 C50          -19.6130    -0.0748     4.9609 C.2     
  51 N51          -20.2515    -1.1093     4.4907 N.2     
  52 N52          -18.7783     0.6483     4.1421 N.pl3   
  53 C53          -26.0635    -1.8759    11.3758 C.2     
  54 O54          -26.0890    -1.6078    10.1933 O.2     
  55 N55          -23.8994    -0.7778    11.3745 N.am    
  56 C56          -24.8776    -1.4737    12.2142 C.3     
  57 C57          -25.3393    -0.5429    13.3374 C.3     
  58 C58          -24.1595    -0.2343    14.2613 C.3     
  59 C59          -24.6142     0.6824    15.3676 C.2     
  60 O60          -25.7683     1.0525    15.4126 O.2     
  61 N61          -23.7384     1.0911    16.3070 N.am    
  62 C62          -29.4633    -3.0622    12.0063 C.2     
  63 O63          -29.3747    -2.8540    13.1978 O.2     
  64 N64          -27.0957    -2.5337    11.9401 N.am    
  65 C65          -28.2485    -2.9248    11.1251 C.3     
  66 C66          -27.9598    -4.2631    10.4422 C.3     
  67 C67          -26.8045    -4.0926     9.4537 C.3     
  68 C68          -26.5201    -5.4108     8.7811 C.2     
  69 O69          -27.1768    -6.3903     9.0644 O.2     
  70 N70          -25.5360    -5.5013     7.8647 N.am    
  71 C71          -32.8099    -4.4976    11.6860 C.2     
  72 O72          -32.5484    -5.0108    10.6186 O.2     
  73 N73          -30.6480    -3.4165    11.4703 N.am    
  74 C74          -31.8289    -3.5501    12.3269 C.3     
  75 C75          -32.4861    -2.1802    12.5067 C.3     
  76 C76          -31.5500    -1.2686    13.2576 C.ar    
  77 C77          -30.6448    -0.4863    12.5644 C.ar    
  78 C78          -29.7853     0.3498    13.2504 C.ar    
  79 C79          -29.8313     0.4046    14.6358 C.ar    
  80 O80          -28.9871     1.2266    15.3129 O.3     
  81 C81          -30.7408    -0.3810    15.3290 C.ar    
  82 C82          -31.6017    -1.2116    14.6381 C.ar    
  83 C83          -36.3219    -5.3893    12.1693 C.2     
  84 O84          -36.4989    -4.4898    12.9634 O.2     
  85 N85          -33.9778    -4.7748    12.2988 N.am    
  86 C86          -34.9315    -5.6959    11.6756 C.3     
  87 C87          -34.5654    -7.1351    12.0439 C.3     
  88 C88          -33.2063    -7.4871    11.4358 C.3     
  89 C89          -32.8402    -8.9263    11.8040 C.3     
  90 N90          -31.5388    -9.2634    11.2218 N.pl3   
  91 C91          -30.9999   -10.5126    11.4199 C.2     
  92 N92          -29.8421   -10.8125    10.9019 N.2     
  93 N93          -31.6824   -11.4455    12.1643 N.pl3   
  94 C94          -39.5770    -7.0514    12.0965 C.2     
  95 O95          -39.1047    -8.0793    11.6591 O.2     
  96 N96          -37.3688    -6.1145    11.7283 N.am    
  97 C97          -38.7205    -5.8164    12.2082 C.3     
  98 C98          -39.3273    -4.6966    11.3604 C.3     
  99 C99          -38.5296    -3.4081    11.5711 C.3     
 100 C100         -39.1364    -2.2883    10.7233 C.3     
 101 C101         -38.3388    -0.9997    10.9339 C.3     
 102 N102         -38.9213     0.0754    10.1200 N.3     
 103 C103         -43.1715    -7.7419    12.2572 C.2     
 104 O104         -43.4693    -6.6220    12.6151 O.2     
 105 N105         -40.8677    -7.0135    12.4826 N.am    
 106 C106         -41.7295    -8.1794    12.2728 C.3     
 107 C107         -41.5136    -9.1839    13.4065 C.3     
 108 C108         -42.4161   -10.4001    13.1892 C.3     
 109 C109         -41.9592   -11.1576    11.9408 C.3     
 110 C110         -42.3296   -11.3234    14.4062 C.3     
 111 C111         -46.4021    -9.4424    11.9442 C.2     
 112 O112         -45.9449   -10.5058    11.5820 O.2     
 113 N113         -44.1302    -8.5951    11.8456 N.am    
 114 C114         -45.5404    -8.2062    11.9256 C.3     
 115 C115         -45.9030    -7.3500    10.7105 C.3     
 116 C116         -47.3401    -6.8448    10.8532 C.3     
 117 C117         -47.4202    -5.8573    12.0191 C.3     
 118 C118         -47.7650    -6.1441     9.5612 C.3     
 119 C119         -49.1538   -10.6451    10.9198 C.2     
 120 O120         -48.8909    -9.8111    10.0794 O.2     
 121 N121         -47.6808    -9.3663    12.3633 N.am    
 122 C122         -48.5455   -10.5469    12.2950 C.3     
 123 C123         -49.6586   -10.4247    13.3375 C.3     
 124 C124         -49.0486   -10.4505    14.7404 C.3     
 125 C125         -50.1618   -10.3283    15.7829 C.3     
 126 C126         -49.5517   -10.3541    17.1858 C.3     
 127 N127         -50.6205   -10.2368    18.1868 N.3     
 128 C128         -51.8238   -10.9046     9.2251 C.2     
 129 O129         -52.1788   -10.2824    10.1981 O.2     
 130 N130         -49.9900   -11.6598    10.6236 N.am    
 131 C131         -50.5814   -11.7553     9.2867 C.3     
 132 C132         -50.9456   -13.2120     8.9930 C.3     
 133 O133         -51.9722   -13.6368     9.8917 O.3     
 134 O134         -52.5360   -10.8381     8.0893 O.3     
 135 C135          -0.9524     2.1905    20.4478 C.2     
 136 O136          -1.5364     1.6213    21.3455 O.2     
 137 C137          15.0367    -2.5378    29.0025 C.3     
 138 C138          13.5076    -2.5904    29.0078 C.3     
 139 C139          12.9677    -1.8550    27.7796 C.3     
 140 C140          11.4386    -1.9076    27.7850 C.3     
 141 C141          10.8987    -1.1721    26.5568 C.3     
 142 C142           9.3696    -1.2247    26.5621 C.3     
 143 C143           8.8297    -0.4892    25.3339 C.3     
 144 C144           7.3006    -0.5418    25.3393 C.3     
 145 C145           6.7607     0.1937    24.1111 C.3     
 146 C146           5.2316     0.1411    24.1164 C.3     
 147 C147           4.6917     0.8765    22.8882 C.3     
 148 C148           3.1626     0.8239    22.8936 C.3     
 149 C149           2.6227     1.5594    21.6654 C.3     
 150 C150           1.0937     1.5068    21.6707 C.3     
 151 C151           0.5537     2.2423    20.4425 C.3     
 152 H152          -1.1832     3.2318    18.7369 H       
 153 H153          -3.4437     1.7720    19.8712 H       
 154 H154          -4.7503     3.8303    20.3236 H       
 155 H155          -3.2903     3.7642    21.3395 H       
 156 H156          -3.3317     4.8220    19.9086 H       
 157 H157          -5.5777     2.7523    18.5454 H       
 158 H158          -5.0655     2.1898    15.8256 H       
 159 H159          -5.1190     3.9569    16.0324 H       
 160 H160          -7.1616     3.1833    14.4538 H       
 161 H161          -9.4435     2.3318    16.0648 H       
 162 H162          -9.2463     5.1333    14.8726 H       
 163 H163         -10.7432     4.4081    15.5064 H       
 164 H164          -9.6689     4.1288    17.7237 H       
 165 H165          -8.1721     4.8540    17.0899 H       
 166 H166          -9.4007     6.9475    16.5835 H       
 167 H167         -10.8976     6.2223    17.2174 H       
 168 H168          -8.9054     6.0367    19.2106 H       
 169 H169          -9.7504     9.0821    20.6993 H       
 170 H170         -10.8124     8.4467    17.4643 H       
 171 H171         -10.8329     9.5761    18.7080 H       
 172 H172         -11.5554     2.6579    14.4227 H       
 173 H173         -10.7428     2.3803    11.6316 H       
 174 H174         -11.6771     0.1331    11.3655 H       
 175 H175         -10.4127     0.0932    12.6176 H       
 176 H176         -12.4118    -0.9990    13.3363 H       
 177 H177         -12.9890     1.7415    10.3311 H       
 178 H178         -15.0239     3.5530    11.4066 H       
 179 H179         -14.8767     1.9314     8.8261 H       
 180 H180         -16.1908     3.0581     9.2409 H       
 181 H181         -13.9116     5.1586     7.3207 H       
 182 H182         -17.4681     2.5072    10.9649 H       
 183 H183         -17.5238    -0.3220    11.6859 H       
 184 H184         -18.8094     0.0705    13.7693 H       
 185 H185         -16.1734     1.6062    13.7589 H       
 186 H186         -16.9360     0.8091    15.1558 H       
 187 H187         -16.3052    -0.1682    13.8085 H       
 188 H188         -19.6056     2.2529    13.2135 H       
 189 H189         -20.0580    -0.9336    12.0338 H       
 190 H190         -21.8558     1.0049    10.7938 H       
 191 H191         -21.2426    -1.6971     9.5162 H       
 192 H192         -22.6041    -0.6473     9.0553 H       
 193 H193         -21.0129     1.1694     8.4927 H       
 194 H194         -19.6514     0.1196     8.9536 H       
 195 H195         -20.3142    -1.5081     7.2044 H       
 196 H196         -21.6757    -0.4583     6.7434 H       
 197 H197         -19.2992     1.0632     6.6256 H       
 198 H198         -20.1377    -1.3690     3.5631 H       
 199 H199         -18.3031     1.4182     4.4920 H       
 200 H200         -18.6645     0.3886     3.2145 H       
 201 H201         -24.1884    -0.3255    10.5666 H       
 202 H202         -24.4188    -2.3635    12.6453 H       
 203 H203         -25.7170     0.3850    12.9081 H       
 204 H204         -26.1310    -1.0277    13.9086 H       
 205 H205         -23.7818    -1.1623    14.6907 H       
 206 H206         -23.3678     0.2505    13.6901 H       
 207 H207         -22.8154     0.7951    16.2710 H       
 208 H208         -24.0311     1.6811    17.0191 H       
 209 H209         -27.0753    -2.7481    12.8859 H       
 210 H210         -28.4333    -2.1629    10.3678 H       
 211 H211         -27.6881    -5.0037    11.1944 H       
 212 H212         -28.8489    -4.5975     9.9076 H       
 213 H213         -27.0762    -3.3520     8.7015 H       
 214 H214         -25.9153    -3.7582     9.9883 H       
 215 H215         -25.0107    -4.7179     7.6381 H       
 216 H216         -25.3529    -6.3498     7.4318 H       
 217 H217         -30.7188    -3.5830    10.5173 H       
 218 H218         -31.5298    -3.9400    13.2998 H       
 219 H219         -32.7048    -1.7510    11.5290 H       
 220 H220         -33.4128    -2.2928    13.0696 H       
 221 H221         -30.6094    -0.5293    11.4859 H       
 222 H222         -29.0779     0.9601    12.7085 H       
 223 H223         -29.3393     2.1146    15.4634 H       
 224 H224         -30.7783    -0.3404    16.4075 H       
 225 H225         -32.3129    -1.8200    15.1769 H       
 226 H226         -34.1870    -4.3643    13.1524 H       
 227 H227         -34.8961    -5.5777    10.5926 H       
 228 H228         -34.5140    -7.2308    13.1284 H       
 229 H229         -35.3243    -7.8139    11.6548 H       
 230 H230         -33.2577    -7.3914    10.3512 H       
 231 H231         -32.4474    -6.8083    11.8249 H       
 232 H232         -32.7888    -9.0220    12.8886 H       
 233 H233         -33.5991    -9.6052    11.4150 H       
 234 H234         -31.0573    -8.6052    10.6966 H       
 235 H235         -29.4619   -11.6939    11.0416 H       
 236 H236         -32.5440   -11.2223    12.5498 H       
 237 H237         -31.3022   -12.3269    12.3040 H       
 238 H238         -37.2273    -6.8339    11.0931 H       
 239 H239         -38.6745    -5.4992    13.2500 H       
 240 H240         -39.2919    -4.9778    10.3079 H       
 241 H241         -40.3632    -4.5355    11.6588 H       
 242 H242         -38.5650    -3.1268    12.6236 H       
 243 H243         -37.4937    -3.5691    11.2726 H       
 244 H244         -39.1010    -2.5695     9.6708 H       
 245 H245         -40.1723    -2.1272    11.0217 H       
 246 H246         -38.3741    -0.7185    11.9864 H       
 247 H247         -37.3028    -1.1608    10.6355 H       
 248 H248         -38.4118     0.9377    10.2417 H       
 249 H249         -38.9592    -0.1879     9.1467 H       
 250 H250         -41.2259    -6.2143    12.8995 H       
 251 H251         -41.4816    -8.6478    11.3203 H       
 252 H252         -40.4711    -9.5022    13.4163 H       
 253 H253         -41.7592    -8.7148    14.3593 H       
 254 H254         -43.4461   -10.0691    13.0567 H       
 255 H255         -40.9545   -11.5489    12.1007 H       
 256 H256         -42.6438   -11.9831    11.7459 H       
 257 H257         -41.9539   -10.4806    11.0866 H       
 258 H258         -42.6551   -10.7837    15.2955 H       
 259 H259         -42.9726   -12.1898    14.2513 H       
 260 H260         -41.2996   -11.6543    14.5387 H       
 261 H261         -43.8865    -9.4666    11.4964 H       
 262 H262         -45.7080    -7.6327    12.8372 H       
 263 H263         -45.2235    -6.5000    10.6492 H       
 264 H264         -45.8171    -7.9500     9.8046 H       
 265 H265         -48.0042    -7.6877    11.0447 H       
 266 H266         -46.6836    -5.0666    11.8767 H       
 267 H267         -48.4184    -5.4213    12.0581 H       
 268 H268         -47.2155    -6.3806    12.9532 H       
 269 H269         -47.7080    -6.8476     8.7306 H       
 270 H270         -48.7889    -5.7842     9.6629 H       
 271 H271         -47.1010    -5.3012     9.3697 H       
 272 H272         -48.0285    -8.5299    12.7102 H       
 273 H273         -47.9558   -11.4413    12.4962 H       
 274 H274         -50.1925    -9.4859    13.1907 H       
 275 H275         -50.3524   -11.2582    13.2277 H       
 276 H276         -48.5147   -11.3894    14.8873 H       
 277 H277         -48.3548    -9.6170    14.8503 H       
 278 H278         -50.6956    -9.3894    15.6361 H       
 279 H279         -50.8555   -11.1618    15.6731 H       
 280 H280         -49.0178   -11.2929    17.3327 H       
 281 H281         -48.8579    -9.5206    17.2957 H       
 282 H282         -50.2429   -10.2513    19.1223 H       
 283 H283         -51.1712    -9.4056    18.0320 H       
 284 H284         -50.2003   -12.3269    11.2957 H       
 285 H285         -49.8633   -11.4038     8.5458 H       
 286 H286         -51.3029   -13.2973     7.9668 H       
 287 H287         -50.0647   -13.8403     9.1245 H       
 288 H288         -52.2534   -14.5530     9.7627 H       
 289 H289         -53.3252   -10.2794     8.0980 H       
 290 H290          15.3646    -1.4986    29.0280 H       
 291 H291          15.4213    -3.0618    29.8775 H       
 292 H292          15.4135    -3.0156    28.0981 H       
 293 H293          13.1797    -3.6296    28.9823 H       
 294 H294          13.1308    -2.1127    29.9122 H       
 295 H295          13.2956    -0.8158    27.8052 H       
 296 H296          13.3445    -2.3327    26.8753 H       
 297 H297          11.1107    -2.9468    27.7594 H       
 298 H298          11.0618    -1.4298    28.6893 H       
 299 H299          11.2266    -0.1329    26.5823 H       
 300 H300          11.2755    -1.6498    25.6524 H       
 301 H301           9.0417    -2.2639    26.5366 H       
 302 H302           8.9928    -0.7469    27.4665 H       
 303 H303           9.1576     0.5500    25.3595 H       
 304 H304           9.2065    -0.9670    24.4296 H       
 305 H305           6.9727    -1.5810    25.3137 H       
 306 H306           6.9238    -0.0640    26.2436 H       
 307 H307           7.0886     1.2329    24.1366 H       
 308 H308           7.1375    -0.2841    23.2067 H       
 309 H309           4.9037    -0.8981    24.0909 H       
 310 H310           4.8548     0.6188    25.0208 H       
 311 H311           5.0196     1.9157    22.9138 H       
 312 H312           5.0685     0.3988    21.9839 H       
 313 H313           2.8348    -0.2153    22.8680 H       
 314 H314           2.7858     1.3017    23.7979 H       
 315 H315           2.9506     2.5986    21.6909 H       
 316 H316           2.9996     1.0817    20.7610 H       
 317 H317           0.7658     0.4676    21.6452 H       
 318 H318           0.7168     1.9846    22.5751 H       
 319 H319           0.9306     1.7645    19.5382 H       
 320 H320           0.8816     3.2815    20.4681 H       
@<TRIPOS>BOND
   1    1    2 2
   2    1    4 1
   3    1    8 am
   4    3  135 am
   5    3    4 1
   6    3  152 1
   7    4    5 1
   8    4  153 1
   9    5  154 1
  10    5  155 1
  11    5  156 1
  12    6    7 2
  13    6    9 1
  14    6   12 am
  15    8    9 1
  16    8  157 1
  17    9  158 1
  18    9  159 1
  19   10   11 2
  20   10   13 1
  21   10   23 am
  22   12   13 1
  23   12  160 1
  24   13   14 1
  25   13  161 1
  26   14   15 1
  27   14  162 1
  28   14  163 1
  29   15   16 1
  30   15  164 1
  31   15  165 1
  32   16   17 1
  33   16  166 1
  34   16  167 1
  35   17   18 1
  36   17  168 1
  37   18   19 2
  38   18   20 1
  39   19  169 1
  40   20  170 1
  41   20  171 1
  42   21   22 2
  43   21   24 1
  44   21   29 am
  45   23   24 1
  46   23  172 1
  47   24   25 1
  48   24  173 1
  49   25   26 1
  50   25  174 1
  51   25  175 1
  52   26  176 1
  53   27   28 2
  54   27   30 1
  55   27   37 am
  56   29   30 1
  57   29  177 1
  58   30   31 1
  59   30  178 1
  60   31   32 1
  61   31  179 1
  62   31  180 1
  63   32   33 2
  64   32   34 1
  65   34  181 1
  66   35   36 2
  67   35   38 1
  68   35   44 am
  69   37   38 1
  70   37  182 1
  71   38   39 1
  72   38  183 1
  73   39   40 1
  74   39   41 1
  75   39  184 1
  76   40  185 1
  77   40  186 1
  78   40  187 1
  79   41  188 1
  80   42   43 2
  81   42   45 1
  82   42   55 am
  83   44   45 1
  84   44  189 1
  85   45   46 1
  86   45  190 1
  87   46   47 1
  88   46  191 1
  89   46  192 1
  90   47   48 1
  91   47  193 1
  92   47  194 1
  93   48   49 1
  94   48  195 1
  95   48  196 1
  96   49   50 1
  97   49  197 1
  98   50   51 2
  99   50   52 1
 100   51  198 1
 101   52  199 1
 102   52  200 1
 103   53   54 2
 104   53   56 1
 105   53   64 am
 106   55   56 1
 107   55  201 1
 108   56   57 1
 109   56  202 1
 110   57   58 1
 111   57  203 1
 112   57  204 1
 113   58   59 1
 114   58  205 1
 115   58  206 1
 116   59   60 2
 117   59   61 am
 118   61  207 1
 119   61  208 1
 120   62   63 2
 121   62   65 1
 122   62   73 am
 123   64   65 1
 124   64  209 1
 125   65   66 1
 126   65  210 1
 127   66   67 1
 128   66  211 1
 129   66  212 1
 130   67   68 1
 131   67  213 1
 132   67  214 1
 133   68   69 2
 134   68   70 am
 135   70  215 1
 136   70  216 1
 137   71   72 2
 138   71   74 1
 139   71   85 am
 140   73   74 1
 141   73  217 1
 142   74   75 1
 143   74  218 1
 144   75   76 1
 145   75  219 1
 146   75  220 1
 147   76   77 ar
 148   76   82 ar
 149   77   78 ar
 150   77  221 1
 151   78   79 ar
 152   78  222 1
 153   79   80 1
 154   79   81 ar
 155   80  223 1
 156   81   82 ar
 157   81  224 1
 158   82  225 1
 159   83   84 2
 160   83   86 1
 161   83   96 am
 162   85   86 1
 163   85  226 1
 164   86   87 1
 165   86  227 1
 166   87   88 1
 167   87  228 1
 168   87  229 1
 169   88   89 1
 170   88  230 1
 171   88  231 1
 172   89   90 1
 173   89  232 1
 174   89  233 1
 175   90   91 1
 176   90  234 1
 177   91   92 2
 178   91   93 1
 179   92  235 1
 180   93  236 1
 181   93  237 1
 182   94   95 2
 183   94   97 1
 184   94  105 am
 185   96   97 1
 186   96  238 1
 187   97   98 1
 188   97  239 1
 189   98   99 1
 190   98  240 1
 191   98  241 1
 192   99  100 1
 193   99  242 1
 194   99  243 1
 195  100  101 1
 196  100  244 1
 197  100  245 1
 198  101  102 1
 199  101  246 1
 200  101  247 1
 201  102  248 1
 202  102  249 1
 203  103  104 2
 204  103  106 1
 205  103  113 am
 206  105  106 1
 207  105  250 1
 208  106  107 1
 209  106  251 1
 210  107  108 1
 211  107  252 1
 212  107  253 1
 213  108  109 1
 214  108  110 1
 215  108  254 1
 216  109  255 1
 217  109  256 1
 218  109  257 1
 219  110  258 1
 220  110  259 1
 221  110  260 1
 222  111  112 2
 223  111  114 1
 224  111  121 am
 225  113  114 1
 226  113  261 1
 227  114  115 1
 228  114  262 1
 229  115  116 1
 230  115  263 1
 231  115  264 1
 232  116  117 1
 233  116  118 1
 234  116  265 1
 235  117  266 1
 236  117  267 1
 237  117  268 1
 238  118  269 1
 239  118  270 1
 240  118  271 1
 241  119  120 2
 242  119  122 1
 243  119  130 am
 244  121  122 1
 245  121  272 1
 246  122  123 1
 247  122  273 1
 248  123  124 1
 249  123  274 1
 250  123  275 1
 251  124  125 1
 252  124  276 1
 253  124  277 1
 254  125  126 1
 255  125  278 1
 256  125  279 1
 257  126  127 1
 258  126  280 1
 259  126  281 1
 260  127  282 1
 261  127  283 1
 262  128  129 2
 263  128  131 1
 264  128  134 1
 265  130  131 1
 266  130  284 1
 267  131  132 1
 268  131  285 1
 269  132  133 1
 270  132  286 1
 271  132  287 1
 272  133  288 1
 273  134  289 1
 274  135  136 2
 275  135  151 1
 276  137  138 1
 277  137  290 1
 278  137  291 1
 279  137  292 1
 280  138  139 1
 281  138  293 1
 282  138  294 1
 283  139  140 1
 284  139  295 1
 285  139  296 1
 286  140  141 1
 287  140  297 1
 288  140  298 1
 289  141  142 1
 290  141  299 1
 291  141  300 1
 292  142  143 1
 293  142  301 1
 294  142  302 1
 295  143  144 1
 296  143  303 1
 297  143  304 1
 298  144  145 1
 299  144  305 1
 300  144  306 1
 301  145  146 1
 302  145  307 1
 303  145  308 1
 304  146  147 1
 305  146  309 1
 306  146  310 1
 307  147  148 1
 308  147  311 1
 309  147  312 1
 310  148  149 1
 311  148  313 1
 312  148  314 1
 313  149  150 1
 314  149  315 1
 315  149  316 1
 316  150  151 1
 317  150  317 1
 318  150  318 1
 319  151  319 1
 320  151  320 1

#	End of record

