#	Name: ASD01816990
#	Creating user name:	WinNT
#	Creation time:	15. 06. 2019 19:36

#	Modifying user name:	WinNT
#	Modification time:	15. 06. 2019 19:36

#	Program:	/corina/corina34_cracker 3.40 0067  02.08.2006

@<TRIPOS>MOLECULE
ASD01816990
  74   80    0    0    0
SMALL
NO_CHARGES


@<TRIPOS>ATOM
   1 C1            -0.0168     1.3869     0.0097 C.ar    
   2 C2             0.0021    -0.0041     0.0020 C.ar    
   3 C3             1.1801    -0.6897    -0.0129 C.ar    
   4 C4             2.3948     0.0129    -0.0207 C.ar    
   5 C5             2.3717     1.4290    -0.0129 C.ar    
   6 C6             1.1455     2.1015     0.0024 C.ar    
   7 C7             3.6293    -0.6694    -0.0365 C.ar    
   8 C8             4.8031     0.0063    -0.0446 C.ar    
   9 C9             4.8359     1.4095    -0.0374 C.ar    
  10 C10            3.6406     2.1511    -0.0211 C.ar    
  11 C11            6.1026     2.1526    -0.0470 C.2     
  12 N12            6.0328     3.5041    -0.0399 N.am    
  13 C13            4.8302     4.1313    -0.0241 C.2     
  14 N14            3.6961     3.4935    -0.0158 N.2     
  15 O15            7.1745     1.5748    -0.0604 O.2     
  16 C16            3.6424    -2.1763    -0.0442 C.3     
  17 C17            3.5087    -2.6726    -1.4608 C.ar    
  18 N18            2.4897    -2.2750    -2.1971 N.ar    
  19 C19            2.3320    -2.6832    -3.4413 C.ar    
  20 C20            3.2384    -3.5504    -4.0209 C.ar    
  21 C21            4.3231    -3.9903    -3.2774 C.ar    
  22 C22            4.4587    -3.5349    -1.9751 C.ar    
  23 C23            7.2655     4.2957    -0.0490 C.3     
  24 C24            7.2920     5.1840    -1.2944 C.3     
  25 C25            7.3178     5.1723     1.2039 C.3     
  26 C26            8.6052     5.9990     1.1945 C.3     
  27 C27            8.6317     6.8873    -0.0509 C.3     
  28 C28            8.5794     6.0107    -1.3038 C.3     
  29 O29            7.2930     4.3426     2.3671 O.3     
  30 C30            5.3336    -4.9367    -3.8729 C.3     
  31 N31            4.6383    -5.9385    -4.6873 N.3     
  32 C32            6.3093    -4.1576    -4.7154 C.ar    
  33 C33            6.7378    -4.6156    -5.9432 C.ar    
  34 C34            6.2469    -5.9203    -6.5162 C.3     
  35 C35            5.6122    -6.7686    -5.4140 C.3     
  36 C36            6.7817    -2.9476    -4.2295 C.ar    
  37 C37            7.6793    -2.2017    -4.9671 C.ar    
  38 C38            8.1107    -2.6628    -6.1967 C.ar    
  39 C39            7.6411    -3.8671    -6.6820 C.ar    
  40 C40            3.7535    -6.7684    -3.8589 C.3     
  41 H41           -0.9630     1.9076     0.0169 H       
  42 H42           -0.9305    -0.5488     0.0083 H       
  43 H43            1.1786    -1.7697    -0.0183 H       
  44 H44            1.1188     3.1811     0.0081 H       
  45 H45            5.7317    -0.5451    -0.0563 H       
  46 H46            4.8132     5.2111    -0.0182 H       
  47 H47            4.5813    -2.5336     0.3789 H       
  48 H48            2.8098    -2.5499     0.5518 H       
  49 H49            1.4846    -2.3359    -4.0136 H       
  50 H50            3.1035    -3.8816    -5.0400 H       
  51 H51            5.2915    -3.8565    -1.3673 H       
  52 H52            8.1264     3.6273    -0.0610 H       
  53 H53            7.2547     4.5595    -2.1870 H       
  54 H54            6.4311     5.8523    -1.2824 H       
  55 H55            6.4569     5.8406     1.2159 H       
  56 H56            8.6425     6.6235     2.0871 H       
  57 H57            9.4662     5.3306     1.1825 H       
  58 H58            7.7708     7.5557    -0.0389 H       
  59 H59            9.5489     7.4763    -0.0577 H       
  60 H60            9.4403     5.3423    -1.3159 H       
  61 H61            8.5983     6.6436    -2.1911 H       
  62 H62            7.3237     4.8324     3.2003 H       
  63 H63            5.8749    -5.4374    -3.0702 H       
  64 H64            5.5062    -5.7197    -7.2902 H       
  65 H65            7.0860    -6.4626    -6.9522 H       
  66 H66            6.3847    -7.1131    -4.7263 H       
  67 H67            5.1045    -7.6251    -5.8576 H       
  68 H68            6.4453    -2.5865    -3.2689 H       
  69 H69            8.0434    -1.2597    -4.5843 H       
  70 H70            8.8137    -2.0827    -6.7761 H       
  71 H71            7.9787    -4.2276    -7.6424 H       
  72 H72            3.0104    -6.1353    -3.3740 H       
  73 H73            3.2504    -7.5028    -4.4878 H       
  74 H74            4.3432    -7.2829    -3.1001 H       
@<TRIPOS>BOND
   1    1    2 ar
   2    1    6 ar
   3    1   41 1
   4    2    3 ar
   5    2   42 1
   6    3    4 ar
   7    3   43 1
   8    4    5 ar
   9    4    7 ar
  10    5    6 ar
  11    5   10 ar
  12    6   44 1
  13    7    8 ar
  14    7   16 1
  15    8    9 ar
  16    8   45 1
  17    9   10 ar
  18    9   11 1
  19   10   14 1
  20   11   12 am
  21   11   15 2
  22   12   13 1
  23   12   23 1
  24   13   14 2
  25   13   46 1
  26   16   17 1
  27   16   47 1
  28   16   48 1
  29   17   18 ar
  30   17   22 ar
  31   18   19 ar
  32   19   20 ar
  33   19   49 1
  34   20   21 ar
  35   20   50 1
  36   21   22 ar
  37   21   30 1
  38   22   51 1
  39   23   24 1
  40   23   25 1
  41   23   52 1
  42   24   28 1
  43   24   53 1
  44   24   54 1
  45   25   26 1
  46   25   29 1
  47   25   55 1
  48   26   27 1
  49   26   56 1
  50   26   57 1
  51   27   28 1
  52   27   58 1
  53   27   59 1
  54   28   60 1
  55   28   61 1
  56   29   62 1
  57   30   31 1
  58   30   32 1
  59   30   63 1
  60   31   40 1
  61   31   35 1
  62   32   33 ar
  63   32   36 ar
  64   33   34 1
  65   33   39 ar
  66   34   35 1
  67   34   64 1
  68   34   65 1
  69   35   66 1
  70   35   67 1
  71   36   37 ar
  72   36   68 1
  73   37   38 ar
  74   37   69 1
  75   38   39 ar
  76   38   70 1
  77   39   71 1
  78   40   72 1
  79   40   73 1
  80   40   74 1

#	End of record

