#	Name: ASD03740235
#	Creating user name:	WinNT
#	Creation time:	15. 06. 2019 20:46

#	Modifying user name:	WinNT
#	Modification time:	15. 06. 2019 20:46

#	Program:	/corina/corina34_cracker 3.40 0067  02.08.2006

@<TRIPOS>MOLECULE
ASD03740235
  37   38    0    0    0
SMALL
NO_CHARGES


@<TRIPOS>ATOM
   1 C1            -1.1405     1.3006     1.2514 C.3     
   2 N2            -1.8372    -2.3183     0.3818 N.am    
   3 O3            -1.8284    -4.1077    -0.9343 O.2     
   4 C4            -0.8328    -0.1647     0.9364 C.3     
   5 N5            -1.3937    -2.9771    -3.4939 N.pl3   
   6 C6            -0.2235    -0.8353     2.1698 C.3     
   7 C7             0.1150    -2.2921     1.8455 C.3     
   8 C8             0.7542    -2.9523     3.0689 C.3     
   9 C9            -1.1691    -3.0399     1.4734 C.3     
  10 C10           -2.1277    -0.8884     0.5540 C.3     
  11 C11           -2.1720    -2.9546    -0.7581 C.2     
  12 C12           -2.9549    -2.2526    -1.7916 C.ar    
  13 C13           -4.1087    -1.5473    -1.4410 C.ar    
  14 C14           -4.8361    -0.8926    -2.4122 C.ar    
  15 C15           -4.4288    -0.9306    -3.7368 C.ar    
  16 C16           -3.2912    -1.6232    -4.0983 C.ar    
  17 C17           -2.5423    -2.2841    -3.1329 C.ar    
  18 Br18          -6.3975     0.0615    -1.9351 Br      
  19 H19           -0.2193     1.8144     1.5262 H       
  20 H20           -1.5745     1.7777     0.3727 H       
  21 H21           -1.8471     1.3535     2.0798 H       
  22 H22           -0.1271    -0.2181     0.1073 H       
  23 H23           -0.8224    -3.3589    -2.8093 H       
  24 H24           -1.1630    -3.0791    -4.4305 H       
  25 H25            0.6851    -0.3070     2.4587 H       
  26 H26           -0.9390    -0.8029     2.9914 H       
  27 H27            0.8120    -2.3260     1.0081 H       
  28 H28            0.0565    -2.9192     3.9057 H       
  29 H29            0.9951    -3.9899     2.8375 H       
  30 H30            1.6663    -2.4182     3.3350 H       
  31 H31           -1.8296    -3.0852     2.3394 H       
  32 H32           -0.9221    -4.0499     1.1464 H       
  33 H33           -2.5131    -0.4788    -0.3797 H       
  34 H34           -2.8663    -0.7582     1.3450 H       
  35 H35           -4.4307    -1.5152    -0.4107 H       
  36 H36           -5.0055    -0.4152    -4.4906 H       
  37 H37           -2.9806    -1.6480    -5.1324 H       
@<TRIPOS>BOND
   1    1    4 1
   2    1   19 1
   3    1   20 1
   4    1   21 1
   5    2    9 1
   6    2   10 1
   7    2   11 am
   8    3   11 2
   9    4    6 1
  10    4   10 1
  11    4   22 1
  12    5   17 1
  13    5   23 1
  14    5   24 1
  15    6    7 1
  16    6   25 1
  17    6   26 1
  18    7    8 1
  19    7    9 1
  20    7   27 1
  21    8   28 1
  22    8   29 1
  23    8   30 1
  24    9   31 1
  25    9   32 1
  26   10   33 1
  27   10   34 1
  28   11   12 1
  29   12   13 ar
  30   12   17 ar
  31   13   14 ar
  32   13   35 1
  33   14   15 ar
  34   14   18 1
  35   15   16 ar
  36   15   36 1
  37   16   17 ar
  38   16   37 1

#	End of record

