#	Name: ASD04220001
#	Creating user name:	WinNT
#	Creation time:	15. 06. 2019 20:48

#	Modifying user name:	WinNT
#	Modification time:	15. 06. 2019 20:48

#	Program:	/corina/corina34_cracker 3.40 0067  02.08.2006

@<TRIPOS>MOLECULE
ASD04220001
  55   57    0    0    0
SMALL
NO_CHARGES


@<TRIPOS>ATOM
   1 C1            -1.1342     0.4826     1.1755 C.ar    
   2 C2            -1.2440    -0.5527     2.0990 C.ar    
   3 C3            -2.4920    -0.9162     2.5713 C.ar    
   4 C4            -3.6322    -0.2571     2.1317 C.ar    
   5 C5            -3.5261     0.7604     1.2093 C.ar    
   6 C6            -2.2726     1.1354     0.7407 C.ar    
   7 C7            -4.9576    -0.6868     2.7093 C.3     
   8 N8            -6.0511    -0.0798     1.9432 N.am    
   9 C9            -5.9241     1.3451     1.5955 C.3     
  10 C10           -4.7221     1.4964     0.6647 C.3     
  11 C11           -7.1293    -0.7981     1.5718 C.2     
  12 O12           -8.0668    -0.2492     1.0259 O.2     
  13 C13           -7.1719    -2.2512     1.8278 C.ar    
  14 C14           -7.9055    -2.7504     2.9068 C.ar    
  15 C15           -7.9438    -4.1116     3.1444 C.ar    
  16 C16           -7.2520    -4.9850     2.3095 C.ar    
  17 C17           -6.5201    -4.4900     1.2334 C.ar    
  18 C18           -6.4833    -3.1301     0.9881 C.ar    
  19 C19           -7.1738     1.8121     0.8945 C.2     
  20 O20           -7.9572     2.5477     1.4705 O.co2   
  21 O21           -7.4013     1.4544    -0.2486 O.co2   
  22 O22            0.0875     0.8540     0.7074 O.3     
  23 O23            0.5080     0.1340    -0.5021 O.3     
  24 O24            1.8276     0.5352    -1.0077 O.3     
  25 S25            2.2633    -0.2107    -2.2608 S.3     
  26 O26            3.6306     0.3884    -2.5579 O.3     
  27 O27           -0.1316    -1.2029     2.5339 O.3     
  28 O28            0.4805    -0.6063     3.7286 O.3     
  29 O29            1.6822    -1.3086     4.1984 O.3     
  30 S30            2.3164    -0.6905     5.4362 S.3     
  31 O31            3.5118    -1.5957     5.6967 O.3     
  32 O32           -8.6575    -4.5981     4.1950 O.3     
  33 O33          -10.0541    -4.9185     3.8714 O.3     
  34 O34          -10.8250    -5.4440     5.0061 O.3     
  35 S35          -12.2720    -5.7759     4.6708 S.3     
  36 O36          -12.8216    -6.2873     5.9948 O.3     
  37 O37           -7.2909    -6.3227     2.5454 O.3     
  38 O38           -8.3909    -7.0179     1.8639 O.3     
  39 O39           -8.4329    -8.4640     2.1190 O.3     
  40 S40           -9.5726    -9.1843     1.4129 S.3     
  41 O41           -9.3810   -10.6319     1.8422 O.3     
  42 O42           -5.8451    -5.3457     0.4199 O.3     
  43 O43           -6.6312    -5.8288    -0.7232 O.3     
  44 O44           -5.9020    -6.7530    -1.6019 O.3     
  45 S45           -6.7165    -7.2535    -2.7862 S.3     
  46 O46           -5.7406    -8.1703    -3.5099 O.3     
  47 H47           -2.5804    -1.7196     3.2876 H       
  48 H48           -2.1878     1.9390     0.0242 H       
  49 H49           -5.0397    -1.7726     2.6603 H       
  50 H50           -5.0213    -0.3656     3.7490 H       
  51 H51           -5.7664     1.9327     2.4999 H       
  52 H52           -4.4772     2.5538     0.5644 H       
  53 H53           -4.9751     1.0933    -0.3159 H       
  54 H54           -8.4420    -2.0733     3.5550 H       
  55 H55           -5.9155    -2.7467     0.1533 H       
@<TRIPOS>BOND
   1    1    2 ar
   2    1   22 1
   3    1    6 ar
   4    2    3 ar
   5    2   27 1
   6    3    4 ar
   7    3   47 1
   8    4    5 ar
   9    4    7 1
  10    5    6 ar
  11    5   10 1
  12    6   48 1
  13    7    8 1
  14    7   49 1
  15    7   50 1
  16    8    9 1
  17    8   11 am
  18    9   10 1
  19    9   19 1
  20    9   51 1
  21   10   52 1
  22   10   53 1
  23   11   12 2
  24   11   13 1
  25   13   14 ar
  26   13   18 ar
  27   14   15 ar
  28   14   54 1
  29   15   16 ar
  30   15   32 1
  31   16   17 ar
  32   16   37 1
  33   17   18 ar
  34   17   42 1
  35   18   55 1
  36   19   20 ar
  37   19   21 ar
  38   22   23 1
  39   23   24 1
  40   24   25 1
  41   25   26 1
  42   27   28 1
  43   28   29 1
  44   29   30 1
  45   30   31 1
  46   32   33 1
  47   33   34 1
  48   34   35 1
  49   35   36 1
  50   37   38 1
  51   38   39 1
  52   39   40 1
  53   40   41 1
  54   42   43 1
  55   43   44 1
  56   44   45 1
  57   45   46 1

#	End of record

