#	Name: ASD09116219
#	Creating user name:	WinNT
#	Creation time:	15. 06. 2019 21:21

#	Modifying user name:	WinNT
#	Modification time:	15. 06. 2019 21:21

#	Program:	/corina/corina34_cracker 3.40 0067  02.08.2006

@<TRIPOS>MOLECULE
ASD09116219
  71   77    0    0    0
SMALL
NO_CHARGES


@<TRIPOS>ATOM
   1 N1             0.0969     0.9609     0.2114 N.2     
   2 N2             0.2112    -0.4384     0.2370 N.pl3   
   3 C3             1.3156     1.4438     0.1718 C.2     
   4 N4             2.1873     0.4284     0.1711 N.2     
   5 C5             1.5362    -0.7144     0.2102 C.2     
   6 N6             1.6495     2.7978     0.1358 N.pl3   
   7 C7             2.9893     3.1893     0.2064 C.ar    
   8 C8             3.4216     4.3443    -0.4328 C.ar    
   9 C9             5.5807     4.0182     0.2985 C.ar    
  10 C10            5.2245     2.8671     0.9585 C.ar    
  11 C11            3.9125     2.4296     0.9247 C.ar    
  12 C12           -0.8347    -1.3621     0.2813 C.ar    
  13 N13           -0.6543    -2.5896    -0.1828 N.ar    
  14 N14           -1.5867    -3.4746    -0.1741 N.ar    
  15 C15           -2.7921    -3.2078     0.3024 C.ar    
  16 C16           -3.0684    -1.9445     0.8330 C.ar    
  17 C17           -2.0699    -0.9937     0.8205 C.ar    
  18 C18           -3.8838    -4.2082     0.2641 C.ar    
  19 C19           -5.1276    -3.8304    -0.2443 C.ar    
  20 C20           -5.3104    -2.4404    -0.7894 C.3     
  21 C21           -5.4531    -1.4164     0.3334 C.3     
  22 C22           -4.4182    -1.6654     1.4273 C.3     
  23 C23           -3.6864    -5.5041     0.7280 C.ar    
  24 C24           -4.7317    -6.4070     0.7000 C.ar    
  25 C25           -5.9687    -6.0222     0.2155 C.ar    
  26 C26           -6.1666    -4.7360    -0.2560 C.ar    
  27 N27            2.1047    -1.9739     0.2225 N.pl3   
  28 N28            4.6838     4.7202    -0.3704 N.ar    
  29 C29            7.0192     4.4939     0.3442 C.3     
  30 C30            7.3257     4.9633     1.7693 C.3     
  31 N31            7.7202     3.8456     2.6109 N.3     
  32 C32            6.6820     2.8863     2.9511 C.3     
  33 C33            6.2666     2.0752     1.7191 C.3     
  34 C34            8.4189     4.3142     3.8151 C.3     
  35 C35            9.6848     5.0946     3.4199 C.3     
  36 C36            9.5135     6.5232     3.9763 C.3     
  37 C37            8.5087     6.3583     5.1434 C.3     
  38 C38            7.5225     5.2958     4.5979 C.3     
  39 H39            0.9518     3.4676     0.0616 H       
  40 H40            2.7145     4.9421    -0.9886 H       
  41 H41            3.6125     1.5283     1.4386 H       
  42 H42           -2.2385     0.0010     1.2061 H       
  43 H43           -4.4465    -2.1808    -1.4011 H       
  44 H44           -6.2059    -2.4159    -1.4103 H       
  45 H45           -5.3111    -0.4153    -0.0738 H       
  46 H46           -6.4528    -1.4903     0.7616 H       
  47 H47           -4.7295    -2.5206     2.0272 H       
  48 H48           -4.3533    -0.7848     2.0665 H       
  49 H49           -2.7208    -5.8033     1.1079 H       
  50 H50           -4.5827    -7.4152     1.0575 H       
  51 H51           -6.7847    -6.7296     0.2046 H       
  52 H52           -7.1353    -4.4417    -0.6322 H       
  53 H53            3.0696    -2.0707     0.2011 H       
  54 H54            1.5388    -2.7611     0.2527 H       
  55 H55            7.6859     3.6743     0.0760 H       
  56 H56            7.1548     5.3213    -0.3523 H       
  57 H57            8.1351     5.6927     1.7399 H       
  58 H58            6.4367     5.4327     2.1908 H       
  59 H59            7.0574     2.2080     3.7173 H       
  60 H60            5.8140     3.4195     3.3389 H       
  61 H61            5.8455     1.1200     2.0328 H       
  62 H62            7.1345     1.9034     1.0824 H       
  63 H63            8.6849     3.4660     4.4460 H       
  64 H64           10.5651     4.6257     3.8596 H       
  65 H65            9.7807     5.1256     2.3345 H       
  66 H66           10.4656     6.9062     4.3437 H       
  67 H67            9.1050     7.1839     3.2117 H       
  68 H68            9.0128     5.9940     6.0385 H       
  69 H69            7.9927     7.2971     5.3445 H       
  70 H70            6.7925     5.7583     3.9337 H       
  71 H71            7.0216     4.7830     5.4190 H       
@<TRIPOS>BOND
   1    1    2 1
   2    1    3 2
   3    2   12 1
   4    2    5 1
   5    3    4 1
   6    3    6 1
   7    4    5 2
   8    5   27 1
   9    6    7 1
  10    6   39 1
  11    7    8 ar
  12    7   11 ar
  13    8   28 ar
  14    8   40 1
  15    9   10 ar
  16    9   29 1
  17    9   28 ar
  18   10   11 ar
  19   10   33 1
  20   11   41 1
  21   12   13 ar
  22   12   17 ar
  23   13   14 ar
  24   14   15 ar
  25   15   16 ar
  26   15   18 1
  27   16   17 ar
  28   16   22 1
  29   17   42 1
  30   18   19 ar
  31   18   23 ar
  32   19   20 1
  33   19   26 ar
  34   20   21 1
  35   20   43 1
  36   20   44 1
  37   21   22 1
  38   21   45 1
  39   21   46 1
  40   22   47 1
  41   22   48 1
  42   23   24 ar
  43   23   49 1
  44   24   25 ar
  45   24   50 1
  46   25   26 ar
  47   25   51 1
  48   26   52 1
  49   27   53 1
  50   27   54 1
  51   29   30 1
  52   29   55 1
  53   29   56 1
  54   30   31 1
  55   30   57 1
  56   30   58 1
  57   31   32 1
  58   31   34 1
  59   32   33 1
  60   32   59 1
  61   32   60 1
  62   33   61 1
  63   33   62 1
  64   34   35 1
  65   34   38 1
  66   34   63 1
  67   35   36 1
  68   35   64 1
  69   35   65 1
  70   36   37 1
  71   36   66 1
  72   36   67 1
  73   37   38 1
  74   37   68 1
  75   37   69 1
  76   38   70 1
  77   38   71 1

#	End of record

