#	Name: ASD03331757
#	Creating user name:	WinNT
#	Creation time:	15. 06. 2019 20:39

#	Modifying user name:	WinNT
#	Modification time:	15. 06. 2019 20:39

#	Program:	/corina/corina34_cracker 3.40 0067  02.08.2006

@<TRIPOS>MOLECULE
ASD03331757
  66   70    0    0    0
SMALL
NO_CHARGES


@<TRIPOS>ATOM
   1 C1             1.4933    -0.3620     1.3375 C.3     
   2 N2             1.6634    -1.7709     0.9558 N.3     
   3 C3             2.0343    -1.8971    -0.4653 C.3     
   4 C4             3.1880    -0.9644    -0.7293 C.2     
   5 N5             3.5534     0.0440     0.1147 N.pl3   
   6 C6             2.8588     0.3365     1.3716 C.3     
   7 C7             4.0413    -0.9340    -1.7826 C.2     
   8 N8             4.9140     0.0792    -1.5755 N.2     
   9 C9             4.6261     0.6695    -0.4368 C.2     
  10 C10            5.3479     1.8213     0.1456 C.ar    
  11 C11            5.6674     2.9244    -0.6504 C.ar    
  12 C12            5.7076     1.8137     1.4939 C.ar    
  13 C13            6.3801     2.8907     2.0320 C.ar    
  14 C14            6.6991     3.9800     1.2379 C.ar    
  15 C15            6.3418     3.9976    -0.0989 C.ar    
  16 F16            5.3187     2.9417    -1.9555 F       
  17 Cl17           7.5449     5.3317     1.9243 Cl      
  18 C18            4.0220    -1.8413    -2.9435 C.2     
  19 O19            3.2538    -2.7840    -2.9659 O.2     
  20 N20            4.8557    -1.6266    -3.9805 N.am    
  21 C21            4.9427    -2.5932    -5.0836 C.3     
  22 C22            0.4527    -2.5472     1.2549 C.3     
  23 C23            4.7106    -1.8548    -6.4056 C.3     
  24 C24            5.6950    -0.6879    -6.5132 C.3     
  25 C25            5.4539     0.2928    -5.3634 C.3     
  26 C26            5.6903    -0.4185    -4.0323 C.3     
  27 C27            7.1057    -1.2126    -6.4380 C.2     
  28 N28            5.4975     0.0024    -7.7948 N.3     
  29 C29            7.8264    -1.6195    -7.6974 C.3     
  30 O30            7.6586    -1.3071    -5.3686 O.2     
  31 C31            6.4364     1.1245    -7.9389 C.3     
  32 C32            4.1088     0.4636    -7.9363 C.3     
  33 C33            3.9328     1.1226    -9.3069 C.3     
  34 O34            4.8743     2.1906    -9.4413 O.3     
  35 C35            6.2370     1.7768    -9.3095 C.3     
  36 H36            0.8502     0.1351     0.6112 H       
  37 H37            1.0335    -0.3069     2.3243 H       
  38 H38            2.3339    -2.9233    -0.6782 H       
  39 H39            1.1869    -1.6221    -1.0933 H       
  40 H40            2.7191     1.4128     1.4728 H       
  41 H41            3.4435    -0.0396     2.2112 H       
  42 H42            5.4593     0.9658     2.1151 H       
  43 H43            6.6586     2.8850     3.0754 H       
  44 H44            6.5935     4.8495    -0.7132 H       
  45 H45            5.9313    -3.0522    -5.0901 H       
  46 H46            4.1811    -3.3625    -4.9562 H       
  47 H47           -0.4031    -2.0922     0.7560 H       
  48 H48            0.5794    -3.5696     0.8988 H       
  49 H49            0.2833    -2.5557     2.3316 H       
  50 H50            4.8673    -2.5409    -7.2379 H       
  51 H51            3.6899    -1.4735    -6.4350 H       
  52 H52            6.1396     1.1352    -5.4539 H       
  53 H53            4.4261     0.6539    -5.4026 H       
  54 H54            5.4243     0.2463    -3.2104 H       
  55 H55            6.7396    -0.7020    -3.9508 H       
  56 H56            7.1437    -1.5525    -8.5445 H       
  57 H57            8.6750    -0.9552    -7.8612 H       
  58 H58            8.1818    -2.6451    -7.5975 H       
  59 H59            6.2488     1.8589    -7.1556 H       
  60 H60            7.4590     0.7564    -7.8563 H       
  61 H61            3.4324    -0.3869    -7.8517 H       
  62 H62            3.8841     1.1874    -7.1529 H       
  63 H63            4.1052     0.3846   -10.0904 H       
  64 H64            2.9203     1.5169    -9.3938 H       
  65 H65            6.8910     2.6443    -9.3984 H       
  66 H66            6.4764     1.0579   -10.0931 H       
@<TRIPOS>BOND
   1    1    2 1
   2    1    6 1
   3    1   36 1
   4    1   37 1
   5    2    3 1
   6    2   22 1
   7    3    4 1
   8    3   38 1
   9    3   39 1
  10    4    5 1
  11    4    7 2
  12    5    6 1
  13    5    9 1
  14    6   40 1
  15    6   41 1
  16    7    8 1
  17    7   18 1
  18    8    9 2
  19    9   10 1
  20   10   11 ar
  21   10   12 ar
  22   11   16 1
  23   11   15 ar
  24   12   13 ar
  25   12   42 1
  26   13   14 ar
  27   13   43 1
  28   14   15 ar
  29   14   17 1
  30   15   44 1
  31   18   19 2
  32   18   20 am
  33   20   21 1
  34   20   26 1
  35   21   23 1
  36   21   45 1
  37   21   46 1
  38   22   47 1
  39   22   48 1
  40   22   49 1
  41   23   24 1
  42   23   50 1
  43   23   51 1
  44   24   25 1
  45   24   27 1
  46   24   28 1
  47   25   26 1
  48   25   52 1
  49   25   53 1
  50   26   54 1
  51   26   55 1
  52   27   29 1
  53   27   30 2
  54   28   31 1
  55   28   32 1
  56   29   56 1
  57   29   57 1
  58   29   58 1
  59   31   35 1
  60   31   59 1
  61   31   60 1
  62   32   33 1
  63   32   61 1
  64   32   62 1
  65   33   34 1
  66   33   63 1
  67   33   64 1
  68   34   35 1
  69   35   65 1
  70   35   66 1

#	End of record

