#	Name: ASD01420025
#	Creating user name:	WinNT
#	Creation time:	15. 06. 2019 19:20

#	Modifying user name:	WinNT
#	Modification time:	15. 06. 2019 19:20

#	Program:	/corina/corina34_cracker 3.40 0067  02.08.2006

@<TRIPOS>MOLECULE
ASD01420025
  38   40    0    0    0
SMALL
NO_CHARGES


@<TRIPOS>ATOM
   1 C1            -0.0144     1.2120     0.0087 C.2     
   2 O2             0.0239     0.2221    -0.6968 O.2     
   3 C3             1.1683     2.0829     0.1205 C.ar    
   4 C4             2.4454     1.5210     0.2702 C.ar    
   5 C5             3.5514     2.3466     0.3740 C.ar    
   6 C6             3.3958     3.7244     0.3301 C.ar    
   7 C7             2.1302     4.2830     0.1818 C.ar    
   8 C8             1.0236     3.4728     0.0721 C.ar    
   9 O9             4.4826     4.5308     0.4327 O.3     
  10 O10            2.5954     0.1734     0.3133 O.3     
  11 C11            1.9714     5.7809     0.1356 C.3     
  12 C12            2.0118     6.3421     1.5584 C.3     
  13 C13           -2.4289     0.8207     0.5905 C.3     
  14 N14           -1.1408     1.5151     0.6839 N.am    
  15 C15           -1.3126     2.6022     1.6529 C.3     
  16 C16           -2.7359     2.5542     2.1482 C.ar    
  17 C17           -3.4111     3.3465     3.0608 C.ar    
  18 C18           -4.7382     3.0937     3.3495 C.ar    
  19 C19           -5.3934     2.0480     2.7260 C.ar    
  20 C20           -4.7202     1.2573     1.8149 C.ar    
  21 C21           -3.3902     1.5100     1.5255 C.ar    
  22 H22            4.5359     1.9180     0.4896 H       
  23 H23            0.0434     3.9101    -0.0473 H       
  24 H24            4.8932     4.7473    -0.4156 H       
  25 H25            2.7341    -0.2348    -0.5522 H       
  26 H26            2.7827     6.2145    -0.4491 H       
  27 H27            1.0164     6.0310    -0.3266 H       
  28 H28            1.2004     5.9086     2.1432 H       
  29 H29            2.9667     6.0920     2.0207 H       
  30 H30            1.8969     7.4255     1.5251 H       
  31 H31           -2.8045     0.8747    -0.4313 H       
  32 H32           -2.3090    -0.2215     0.8863 H       
  33 H33           -0.6259     2.4645     2.4882 H       
  34 H34           -1.1214     3.5607     1.1705 H       
  35 H35           -2.8995     4.1634     3.5481 H       
  36 H36           -5.2635     3.7122     4.0622 H       
  37 H37           -6.4308     1.8493     2.9512 H       
  38 H38           -5.2322     0.4403     1.3282 H       
@<TRIPOS>BOND
   1    1    2 2
   2    1    3 1
   3    1   14 am
   4    3    4 ar
   5    3    8 ar
   6    4    5 ar
   7    4   10 1
   8    5    6 ar
   9    5   22 1
  10    6    7 ar
  11    6    9 1
  12    7    8 ar
  13    7   11 1
  14    8   23 1
  15    9   24 1
  16   10   25 1
  17   11   12 1
  18   11   26 1
  19   11   27 1
  20   12   28 1
  21   12   29 1
  22   12   30 1
  23   13   14 1
  24   13   21 1
  25   13   31 1
  26   13   32 1
  27   14   15 1
  28   15   16 1
  29   15   33 1
  30   15   34 1
  31   16   17 ar
  32   16   21 ar
  33   17   18 ar
  34   17   35 1
  35   18   19 ar
  36   18   36 1
  37   19   20 ar
  38   19   37 1
  39   20   21 ar
  40   20   38 1

#	End of record

