#	Name: ASD02039162
#	Creating user name:	WinNT
#	Creation time:	15. 06. 2019 20:17

#	Modifying user name:	WinNT
#	Modification time:	15. 06. 2019 20:17

#	Program:	/corina/corina34_cracker 3.40 0067  02.08.2006

@<TRIPOS>MOLECULE
ASD02039162
  45   48    0    0    0
SMALL
NO_CHARGES


@<TRIPOS>ATOM
   1 N1            -0.0010     1.2806     0.2549 N.2     
   2 C2             0.0074    -0.0198     0.1287 C.2     
   3 N3             1.2988    -0.4140     0.1373 N.2     
   4 C4             2.0014     0.6841     0.2697 C.2     
   5 O5             1.1344     1.6992     0.3369 O.3     
   6 C6             3.5037     0.7838     0.3345 C.3     
   7 O7             4.0277     0.9454    -0.9851 O.3     
   8 C8             5.3780     1.0517    -1.1044 C.ar    
   9 N9            -1.1049    -0.8433     0.0085 N.pl3   
  10 C10           -2.3915    -0.3042     0.1293 C.ar    
  11 C11           -3.4565    -0.8915    -0.5409 C.ar    
  12 C12           -4.7251    -0.3591    -0.4213 C.ar    
  13 C13           -4.9356     0.7621     0.3678 C.ar    
  14 C14           -3.8723     1.3493     1.0376 C.ar    
  15 C15           -2.6041     0.8145     0.9239 C.ar    
  16 C16            6.1800     1.0013     0.0266 C.ar    
  17 C17            7.5513     1.1092    -0.0934 C.ar    
  18 C18            8.1276     1.2675    -1.3467 C.ar    
  19 C19            7.3242     1.3174    -2.4780 C.ar    
  20 C20            5.9533     1.2048    -2.3573 C.ar    
  21 N21            9.5179     1.3765    -1.4724 N.am    
  22 C22           10.0631     1.8908    -2.5900 C.2     
  23 C23            9.1929     2.3757    -3.7181 C.3     
  24 C24            7.9524     1.4888    -3.8367 C.3     
  25 O25           11.2697     1.9647    -2.6893 O.2     
  26 O26           -6.1850     1.2863     0.4844 O.3     
  27 F27           -5.5324     3.4768     0.8128 F       
  28 F28           -7.6685     2.8457     1.3208 F       
  29 C29           -6.3292     2.4414     1.3132 C.3     
  30 F30           -5.9279     2.1327     2.6173 F       
  31 H31            3.7849     1.6420     0.9447 H       
  32 H32            3.9093    -0.1257     0.7776 H       
  33 H33           -0.9902    -1.7918    -0.1591 H       
  34 H34           -3.2927    -1.7640    -1.1559 H       
  35 H35           -5.5536    -0.8157    -0.9425 H       
  36 H36           -4.0370     2.2223     1.6518 H       
  37 H37           -1.7764     1.2716     1.4458 H       
  38 H38            5.7316     0.8779     1.0013 H       
  39 H39            8.1754     1.0708     0.7872 H       
  40 H40            5.3286     1.2438    -3.2374 H       
  41 H41           10.0919     1.0797    -0.7490 H       
  42 H42            8.8862     3.4032    -3.5227 H       
  43 H43            9.7553     2.3383    -4.6510 H       
  44 H44            8.2393     0.5138    -4.2305 H       
  45 H45            7.2352     1.9560    -4.5116 H       
@<TRIPOS>BOND
   1    1    2 2
   2    1    5 1
   3    2    3 1
   4    2    9 1
   5    3    4 2
   6    4    5 1
   7    4    6 1
   8    6    7 1
   9    6   31 1
  10    6   32 1
  11    7    8 1
  12    8   16 ar
  13    8   20 ar
  14    9   10 1
  15    9   33 1
  16   10   11 ar
  17   10   15 ar
  18   11   12 ar
  19   11   34 1
  20   12   13 ar
  21   12   35 1
  22   13   14 ar
  23   13   26 1
  24   14   15 ar
  25   14   36 1
  26   15   37 1
  27   16   17 ar
  28   16   38 1
  29   17   18 ar
  30   17   39 1
  31   18   19 ar
  32   18   21 1
  33   19   20 ar
  34   19   24 1
  35   20   40 1
  36   21   22 am
  37   21   41 1
  38   22   23 1
  39   22   25 2
  40   23   24 1
  41   23   42 1
  42   23   43 1
  43   24   44 1
  44   24   45 1
  45   26   29 1
  46   27   29 1
  47   28   29 1
  48   29   30 1

#	End of record

