#	Name: ASD02770034
#	Creating user name:	WinNT
#	Creation time:	15. 06. 2019 20:26

#	Modifying user name:	WinNT
#	Modification time:	15. 06. 2019 20:26

#	Program:	/corina/corina34_cracker 3.40 0067  02.08.2006

@<TRIPOS>MOLECULE
ASD02770034
  56   58    0    0    0
SMALL
NO_CHARGES


@<TRIPOS>ATOM
   1 C1            -0.0165     1.3629     0.0095 C.2     
   2 C2             0.0021    -0.0041     0.0020 C.2     
   3 C3             1.3423    -0.5613    -0.0136 C.2     
   4 C4             2.2880     0.3854    -0.0176 C.2     
   5 S5             1.5676     1.9866    -0.0022 S.3     
   6 C6             3.7784     0.1047    -0.0329 C.3     
   7 C7             4.0086    -1.3532     0.3743 C.3     
   8 C8             3.0971    -2.2554    -0.4630 C.3     
   9 C9             1.6458    -2.0510    -0.0234 C.3     
  10 C10           -1.2119    -0.8260     0.0098 C.2     
  11 O11           -1.7261    -1.1620    -1.0410 O.2     
  12 N12           -1.7584    -1.2097     1.1805 N.am    
  13 C13           -2.9715    -2.0311     1.1882 C.3     
  14 C14           -3.3797    -2.3242     2.6333 C.3     
  15 O15           -3.7449    -1.1044     3.2819 O.3     
  16 N16           -1.1669     2.1349     0.0193 N.am    
  17 C17           -1.0760     3.4796     0.0262 C.2     
  18 C18           -2.3019     4.3023     0.0367 C.ar    
  19 C19           -2.2117     5.6982     0.0438 C.ar    
  20 C20           -3.3650     6.4609     0.0531 C.ar    
  21 C21           -4.6033     5.8460     0.0553 C.ar    
  22 C22           -4.6984     4.4651     0.0483 C.ar    
  23 C23           -3.5574     3.6909     0.0336 C.ar    
  24 O24            0.0155     4.0151     0.0238 O.2     
  25 F25           -1.0017     6.2993     0.0421 F       
  26 C26            5.4705    -1.7296     0.1249 C.3     
  27 C27            6.3799    -0.8199     0.9534 C.3     
  28 C28            5.6986    -3.1865     0.5323 C.3     
  29 C29            5.7948    -1.5586    -1.3606 C.3     
  30 H30            4.1713     0.2705    -1.0361 H       
  31 H31            4.2820     0.7653     0.6729 H       
  32 H32            3.7738    -1.4779     1.4314 H       
  33 H33            3.1980    -1.9972    -1.5172 H       
  34 H34            3.3796    -3.2975    -0.3137 H       
  35 H35            1.5068    -2.4588     0.9779 H       
  36 H36            0.9777    -2.5554    -0.7215 H       
  37 H37           -1.3486    -0.9420     2.0179 H       
  38 H38           -3.7763    -1.4953     0.6849 H       
  39 H39           -2.7784    -2.9691     0.6678 H       
  40 H40           -4.2289    -3.0075     2.6395 H       
  41 H41           -2.5426    -2.7803     3.1619 H       
  42 H42           -4.0156    -1.2148     4.2037 H       
  43 H43           -2.0377     1.7077     0.0213 H       
  44 H44           -3.2984     7.5388     0.0590 H       
  45 H45           -5.5011     6.4463     0.0629 H       
  46 H46           -5.6695     3.9925     0.0504 H       
  47 H47           -3.6346     2.6137     0.0236 H       
  48 H48            6.1488    -0.9417     2.0116 H       
  49 H49            7.4213    -1.0880     0.7757 H       
  50 H50            6.2173     0.2181     0.6631 H       
  51 H51            5.0508    -3.8346    -0.0579 H       
  52 H52            6.7401    -3.4547     0.3546 H       
  53 H53            5.4676    -3.3083     1.5906 H       
  54 H54            5.6322    -0.5206    -1.6508 H       
  55 H55            6.8362    -1.8268    -1.5383 H       
  56 H56            5.1469    -2.2067    -1.9508 H       
@<TRIPOS>BOND
   1    1    2 2
   2    1    5 1
   3    1   16 1
   4    2    3 1
   5    2   10 1
   6    3    4 2
   7    3    9 1
   8    4    5 1
   9    4    6 1
  10    6    7 1
  11    6   30 1
  12    6   31 1
  13    7    8 1
  14    7   26 1
  15    7   32 1
  16    8    9 1
  17    8   33 1
  18    8   34 1
  19    9   35 1
  20    9   36 1
  21   10   11 2
  22   10   12 am
  23   12   13 1
  24   12   37 1
  25   13   14 1
  26   13   38 1
  27   13   39 1
  28   14   15 1
  29   14   40 1
  30   14   41 1
  31   15   42 1
  32   16   17 am
  33   16   43 1
  34   17   18 1
  35   17   24 2
  36   18   19 ar
  37   18   23 ar
  38   19   20 ar
  39   19   25 1
  40   20   21 ar
  41   20   44 1
  42   21   22 ar
  43   21   45 1
  44   22   23 ar
  45   22   46 1
  46   23   47 1
  47   26   27 1
  48   26   29 1
  49   26   28 1
  50   27   48 1
  51   27   49 1
  52   27   50 1
  53   28   51 1
  54   28   52 1
  55   28   53 1
  56   29   54 1
  57   29   55 1
  58   29   56 1

#	End of record

