#	Name: ASD01901564
#	Creating user name:	WinNT
#	Creation time:	15. 06. 2019 19:54

#	Modifying user name:	WinNT
#	Modification time:	15. 06. 2019 19:54

#	Program:	/corina/corina34_cracker 3.40 0067  02.08.2006

@<TRIPOS>MOLECULE
ASD01901564
  32   35    0    0    0
SMALL
NO_CHARGES


@<TRIPOS>ATOM
   1 C1            -0.0197     1.1138    -0.1830 C.3     
   2 N2            -0.2723    -0.3248    -0.0706 N.pl3   
   3 N3            -0.5451    -1.1969    -1.1315 N.2     
   4 C4            -0.7179    -2.4037    -0.6765 C.2     
   5 C5            -0.5644    -2.3840     0.7311 C.ar    
   6 C6            -0.6397    -3.3713     1.7239 C.ar    
   7 Cl7           -0.9868    -5.0158     1.2894 Cl      
   8 C8            -0.4395    -3.0382     3.0312 C.ar    
   9 C9            -0.1592    -1.7196     3.3936 C.ar    
  10 N10            0.0433    -1.3977     4.7373 N.pl3   
  11 C11            0.5730    -2.3510     5.6125 C.2     
  12 N12            1.0144    -3.5364     5.2851 N.2     
  13 N13            1.4684    -4.2098     6.4238 N.pl3   
  14 H14            1.8419    -5.1050     6.4363 H       
  15 C15            1.3019    -3.4033     7.5184 C.ar    
  16 C16            1.5712    -3.5505     8.8787 C.ar    
  17 C17            1.2651    -2.5011     9.7226 C.ar    
  18 C18            0.7045    -1.3420     9.2020 C.ar    
  19 N19            0.4570    -1.2194     7.9177 N.ar    
  20 C20            0.7383    -2.1972     7.0598 C.ar    
  21 C21           -0.0803    -0.7296     2.4303 C.ar    
  22 C22           -0.2768    -1.0534     1.0917 C.ar    
  23 H23            1.0476     1.2855    -0.3230 H       
  24 H24           -0.5670     1.5132    -1.0369 H       
  25 H25           -0.3517     1.6132     0.7272 H       
  26 H26           -0.9416    -3.2756    -1.2733 H       
  27 H27           -0.4987    -3.8014     3.7930 H       
  28 H28           -0.1834    -0.5128     5.0635 H       
  29 H29            2.0073    -4.4611     9.2620 H       
  30 H30            1.4602    -2.5815    10.7818 H       
  31 H31            0.4668    -0.5247     9.8667 H       
  32 H32            0.1365     0.2892     2.7158 H       
@<TRIPOS>BOND
   1    1    2 1
   2    1   23 1
   3    1   24 1
   4    1   25 1
   5    2   22 1
   6    2    3 1
   7    3    4 2
   8    4    5 1
   9    4   26 1
  10    5   22 ar
  11    5    6 ar
  12    6    7 1
  13    6    8 ar
  14    8    9 ar
  15    8   27 1
  16    9   10 1
  17    9   21 ar
  18   10   11 1
  19   10   28 1
  20   11   20 1
  21   11   12 2
  22   12   13 1
  23   13   14 1
  24   13   15 1
  25   15   20 ar
  26   15   16 ar
  27   16   17 ar
  28   16   29 1
  29   17   18 ar
  30   17   30 1
  31   18   19 ar
  32   18   31 1
  33   19   20 ar
  34   21   22 ar
  35   21   32 1

#	End of record

