#	Name: ASD03082448
#	Creating user name:	WinNT
#	Creation time:	15. 06. 2019 20:28

#	Modifying user name:	WinNT
#	Modification time:	15. 06. 2019 20:28

#	Program:	/corina/corina34_cracker 3.40 0067  02.08.2006

@<TRIPOS>MOLECULE
ASD03082448
  54   57    0    0    0
SMALL
NO_CHARGES


@<TRIPOS>ATOM
   1 C1             1.0957     3.4372    -0.4834 C.ar    
   2 C2             0.0397     4.0502    -1.1474 C.ar    
   3 C3            -0.0098     5.4269    -1.2448 C.ar    
   4 C4             0.9898     6.1986    -0.6828 C.ar    
   5 C5             2.0467     5.5923    -0.0185 C.ar    
   6 N6             1.1463     2.0447    -0.3851 N.pl3   
   7 C7             2.3816     1.3942    -0.2958 C.2     
   8 C8             2.5751     0.0188    -0.0809 C.2     
   9 N9             3.5599     1.9620    -0.4039 N.2     
  10 N10            4.5387     0.9708    -0.2563 N.pl3   
  11 C11            3.9062    -0.2154    -0.0588 C.2     
  12 C12            5.9220     1.1669    -0.3068 C.ar    
  13 C13            6.7450     0.2799    -0.9983 C.ar    
  14 C14            6.5130     2.2576     0.3282 C.ar    
  15 C15            7.8818     2.4156     0.2548 C.ar    
  16 N16            8.6280     1.5505    -0.4055 N.ar    
  17 C17            8.1054     0.5087    -1.0242 C.ar    
  18 C18            8.5327     3.5912     0.9368 C.3     
  19 C19            9.0066    -0.4469    -1.7630 C.3     
  20 C20            2.1031     4.2106     0.0771 C.ar    
  21 O21            3.0286     6.3526     0.5335 O.3     
  22 C22            4.5699    -1.5525     0.1482 C.3     
  23 C23            4.6203    -2.2964    -1.1614 C.2     
  24 N24            5.1742    -3.5238    -1.2183 N.am    
  25 O25            4.1625    -1.7907    -2.1641 O.2     
  26 C26            5.2233    -4.2470    -2.4914 C.3     
  27 C27            6.3172    -5.3030    -2.6623 C.3     
  28 C28            4.8611    -5.7334    -2.4739 C.3     
  29 C29            2.9089     7.7695     0.3919 C.3     
  30 F30            1.7196     8.1991     0.9903 F       
  31 F31            3.9958     8.3937     1.0136 F       
  32 F32            2.8943     8.1028    -0.9667 F       
  33 H33           -0.7424     3.4495    -1.5878 H       
  34 H34           -0.8309     5.9015    -1.7615 H       
  35 H35            0.9484     7.2750    -0.7609 H       
  36 H36            0.3249     1.5288    -0.3788 H       
  37 H37            1.7977    -0.7203     0.0450 H       
  38 H38            6.3237    -0.5749    -1.5065 H       
  39 H39            5.9080     2.9695     0.8700 H       
  40 H40            8.7999     3.3169     1.9574 H       
  41 H41            9.4315     3.8765     0.3901 H       
  42 H42            7.8375     4.4305     0.9564 H       
  43 H43            9.3300    -1.2380    -1.0866 H       
  44 H44            8.4634    -0.8845    -2.6006 H       
  45 H45            9.8782     0.0908    -2.1363 H       
  46 H46            2.9248     3.7371     0.5936 H       
  47 H47            5.5835    -1.4014     0.5196 H       
  48 H48            3.9998    -2.1326     0.8739 H       
  49 H49            5.5404    -3.9283    -0.4163 H       
  50 H50            4.9391    -3.6697    -3.3712 H       
  51 H51            6.7524    -5.4207    -3.6547 H       
  52 H52            7.0003    -5.4596    -1.8276 H       
  53 H53            4.5864    -6.1732    -1.5152 H       
  54 H54            4.3384    -6.1343    -3.3423 H       
@<TRIPOS>BOND
   1    1    2 ar
   2    1    6 1
   3    1   20 ar
   4    2    3 ar
   5    2   33 1
   6    3    4 ar
   7    3   34 1
   8    4    5 ar
   9    4   35 1
  10    5   20 ar
  11    5   21 1
  12    6    7 1
  13    6   36 1
  14    7    8 1
  15    7    9 2
  16    8   11 2
  17    8   37 1
  18    9   10 1
  19   10   11 1
  20   10   12 1
  21   11   22 1
  22   12   13 ar
  23   12   14 ar
  24   13   17 ar
  25   13   38 1
  26   14   15 ar
  27   14   39 1
  28   15   16 ar
  29   15   18 1
  30   16   17 ar
  31   17   19 1
  32   18   40 1
  33   18   41 1
  34   18   42 1
  35   19   43 1
  36   19   44 1
  37   19   45 1
  38   20   46 1
  39   21   29 1
  40   22   23 1
  41   22   47 1
  42   22   48 1
  43   23   24 am
  44   23   25 2
  45   24   26 1
  46   24   49 1
  47   26   27 1
  48   26   28 1
  49   26   50 1
  50   27   28 1
  51   27   51 1
  52   27   52 1
  53   28   53 1
  54   28   54 1
  55   29   30 1
  56   29   31 1
  57   29   32 1

#	End of record

