#	Name: ASD03900006
#	Creating user name:	WinNT
#	Creation time:	15. 06. 2019 20:47

#	Modifying user name:	WinNT
#	Modification time:	15. 06. 2019 20:47

#	Program:	/corina/corina34_cracker 3.40 0067  02.08.2006

@<TRIPOS>MOLECULE
ASD03900006
  50   52    0    0    0
SMALL
NO_CHARGES


@<TRIPOS>ATOM
   1 C1            -0.0184     1.5028     0.0103 C.3     
   2 C2            -0.1727     0.0081     0.1252 C.ar    
   3 C3             1.4463     1.8574     0.0032 C.ar    
   4 C4            -0.6562     1.9767    -1.2701 C.ar    
   5 C5            -0.6908     2.1688     1.1830 C.2     
   6 C6            -1.4350    -0.5559     0.1451 C.ar    
   7 C7            -1.5792    -1.9257     0.2503 C.ar    
   8 C8            -0.4561    -2.7357     0.3360 C.ar    
   9 C9             0.8093    -2.1674     0.3158 C.ar    
  10 C10            0.9482    -0.7974     0.2048 C.ar    
  11 C11            2.2488     1.4548    -1.0483 C.ar    
  12 C12            3.5917     1.7786    -1.0572 C.ar    
  13 C13            4.1350     2.5085    -0.0100 C.ar    
  14 C14            3.3277     2.9113     1.0439 C.ar    
  15 C15            1.9841     2.5898     1.0453 C.ar    
  16 C16           -0.7632     3.3309    -1.5279 C.ar    
  17 C17           -1.3475     3.7680    -2.7009 C.ar    
  18 C18           -1.8272     2.8468    -3.6207 C.ar    
  19 C19           -1.7187     1.4886    -3.3597 C.ar    
  20 C20           -1.1285     1.0566    -2.1878 C.ar    
  21 O21           -2.4028     3.2742    -4.7751 O.3     
  22 C22           -2.8742     2.2698    -5.6756 C.3     
  23 O23           -0.5953    -4.0835     0.4400 O.3     
  24 C24            0.6046    -4.8551     0.5242 C.3     
  25 O25            5.4559     2.8279    -0.0162 O.3     
  26 C26            5.9464     3.5812     1.0947 C.3     
  27 O27           -0.2850     1.8960     2.4331 O.3     
  28 O28           -1.5952     2.9484     0.9981 O.2     
  29 H29           -2.3090     0.0751     0.0786 H       
  30 H30           -2.5653    -2.3657     0.2661 H       
  31 H31            1.6851    -2.7958     0.3824 H       
  32 H32            1.9331    -0.3545     0.1890 H       
  33 H33            1.8254     0.8863    -1.8632 H       
  34 H34            4.2182     1.4635    -1.8786 H       
  35 H35            3.7482     3.4796     1.8603 H       
  36 H36            1.3552     2.9032     1.8655 H       
  37 H37           -0.3899     4.0477    -0.8114 H       
  38 H38           -1.4311     4.8259    -2.9016 H       
  39 H39           -2.0914     0.7695    -4.0741 H       
  40 H40           -1.0438    -0.0007    -1.9841 H       
  41 H41           -2.0418     1.6357    -5.9807 H       
  42 H42           -3.6306     1.6623    -5.1787 H       
  43 H43           -3.3099     2.7452    -6.5544 H       
  44 H44            1.2056    -4.6909    -0.3702 H       
  45 H45            1.1715    -4.5504     1.4039 H       
  46 H46            0.3518    -5.9124     0.6030 H       
  47 H47            5.4156     4.5314     1.1521 H       
  48 H48            5.7854     3.0189     2.0144 H       
  49 H49            7.0124     3.7678     0.9648 H       
  50 H50           -0.7465     2.3476     3.1529 H       
@<TRIPOS>BOND
   1    1    2 1
   2    1    3 1
   3    1    4 1
   4    1    5 1
   5    2    6 ar
   6    2   10 ar
   7    3   11 ar
   8    3   15 ar
   9    4   16 ar
  10    4   20 ar
  11    5   27 1
  12    5   28 2
  13    6    7 ar
  14    6   29 1
  15    7    8 ar
  16    7   30 1
  17    8    9 ar
  18    8   23 1
  19    9   10 ar
  20    9   31 1
  21   10   32 1
  22   11   12 ar
  23   11   33 1
  24   12   13 ar
  25   12   34 1
  26   13   14 ar
  27   13   25 1
  28   14   15 ar
  29   14   35 1
  30   15   36 1
  31   16   17 ar
  32   16   37 1
  33   17   18 ar
  34   17   38 1
  35   18   19 ar
  36   18   21 1
  37   19   20 ar
  38   19   39 1
  39   20   40 1
  40   21   22 1
  41   22   41 1
  42   22   42 1
  43   22   43 1
  44   23   24 1
  45   24   44 1
  46   24   45 1
  47   24   46 1
  48   25   26 1
  49   26   47 1
  50   26   48 1
  51   26   49 1
  52   27   50 1

#	End of record

