#	Name: ASD08170411
#	Creating user name:	WinNT
#	Creation time:	15. 06. 2019 21:17

#	Modifying user name:	WinNT
#	Modification time:	15. 06. 2019 21:17

#	Program:	/corina/corina34_cracker 3.40 0067  02.08.2006

@<TRIPOS>MOLECULE
ASD08170411
  53   56    0    0    0
SMALL
NO_CHARGES


@<TRIPOS>ATOM
   1 N1            -0.0248     1.2928    -0.3027 N.2     
   2 C2            -0.0021    -0.0008    -0.1167 C.2     
   3 S3             1.6886    -0.5008    -0.0366 S.3     
   4 C4             2.1629     1.1820    -0.2760 C.2     
   5 N5             1.0833     1.8893    -0.3830 N.2     
   6 C6             7.8535     3.9839     4.2501 C.2     
   7 S7             7.5694     5.5316     5.0493 S.3     
   8 C8             8.2317     4.8466     6.5350 C.2     
   9 N9             8.5707     3.6146     6.2855 N.2     
  10 N10            8.3706     3.1773     5.1198 N.2     
  11 C11            9.0372     5.5575    10.1054 C.ar    
  12 C12            9.5807     4.8911    11.2055 C.ar    
  13 C13            8.6362     6.8890    10.2312 C.ar    
  14 C14            8.7789     7.5378    11.4397 C.ar    
  15 C15            9.3191     6.8716    12.5270 C.ar    
  16 C16            9.7183     5.5509    12.4086 C.ar    
  17 C17           -4.5828    -0.5261     0.0655 C.ar    
  18 C18           -4.6770     0.8576     0.1095 C.ar    
  19 C19           -5.9177     1.4635     0.1459 C.ar    
  20 C20           -7.0660     0.6919     0.1385 C.ar    
  21 C21           -6.9745    -0.6879     0.0947 C.ar    
  22 C22           -5.7358    -1.2978     0.0525 C.ar    
  23 Br23           9.5119     7.7689    14.1803 Br      
  24 Br24          -8.7632     1.5243     0.1890 Br      
  25 C25            3.5750     1.7039    -0.3441 C.3     
  26 C26            4.0458     2.0857     1.0607 C.3     
  27 S27            5.7456     2.7139     0.9788 S.3     
  28 C28            6.1193     3.1066     2.7099 C.3     
  29 C29            7.5430     3.6577     2.8120 C.3     
  30 O30           -3.3631    -1.1243     0.0297 O.3     
  31 C31           -2.2888    -0.3177    -0.0815 C.2     
  32 N32           -1.0890    -0.8171    -0.0041 N.2     
  33 N33            8.3677     5.5042     7.7517 N.am    
  34 C34            8.8927     4.8584     8.8118 C.2     
  35 O35            9.2473     3.7006     8.7036 O.2     
  36 H36            9.8924     3.8611    11.1144 H       
  37 H37            8.2154     7.4098     9.3838 H       
  38 H38            8.4691     8.5677    11.5384 H       
  39 H39           10.1388     5.0367    13.2602 H       
  40 H40           -3.7808     1.4603     0.1156 H       
  41 H41           -5.9915     2.5405     0.1805 H       
  42 H42           -7.8721    -1.2884     0.0894 H       
  43 H43           -5.6648    -2.3749     0.0179 H       
  44 H44            4.2288     0.9314    -0.7490 H       
  45 H45            3.6071     2.5819    -0.9892 H       
  46 H46            3.3921     2.8582     1.4657 H       
  47 H47            4.0137     1.2077     1.7058 H       
  48 H48            5.4137     3.8536     3.0736 H       
  49 H49            6.0353     2.2031     3.3138 H       
  50 H50            7.6270     4.5612     2.2082 H       
  51 H51            8.2487     2.9107     2.4483 H       
  52 H52           -2.4235     0.7428    -0.2349 H       
  53 H53            8.0847     6.4280     7.8380 H       
@<TRIPOS>BOND
   1    1    2 2
   2    1    5 1
   3    2    3 1
   4    2   32 1
   5    3    4 1
   6    4    5 2
   7    4   25 1
   8    6    7 1
   9    6   29 1
  10    6   10 2
  11    7    8 1
  12    8    9 2
  13    8   33 1
  14    9   10 1
  15   11   12 ar
  16   11   13 ar
  17   11   34 1
  18   12   16 ar
  19   12   36 1
  20   13   14 ar
  21   13   37 1
  22   14   15 ar
  23   14   38 1
  24   15   16 ar
  25   15   23 1
  26   16   39 1
  27   17   18 ar
  28   17   30 1
  29   17   22 ar
  30   18   19 ar
  31   18   40 1
  32   19   20 ar
  33   19   41 1
  34   20   21 ar
  35   20   24 1
  36   21   22 ar
  37   21   42 1
  38   22   43 1
  39   25   26 1
  40   25   44 1
  41   25   45 1
  42   26   27 1
  43   26   46 1
  44   26   47 1
  45   27   28 1
  46   28   29 1
  47   28   48 1
  48   28   49 1
  49   29   50 1
  50   29   51 1
  51   30   31 1
  52   31   32 2
  53   31   52 1
  54   33   34 am
  55   33   53 1
  56   34   35 2

#	End of record

