#	Name: ASD03240666
#	Creating user name:	WinNT
#	Creation time:	15. 06. 2019 20:35

#	Modifying user name:	WinNT
#	Modification time:	15. 06. 2019 20:35

#	Program:	/corina/corina34_cracker 3.40 0067  02.08.2006

@<TRIPOS>MOLECULE
ASD03240666
  69   75    0    0    0
SMALL
NO_CHARGES


@<TRIPOS>ATOM
   1 C1            -0.0277     1.3942     0.0080 C.ar    
   2 C2            -0.0143     0.0147    -0.0035 C.ar    
   3 N3             1.1233    -0.6538    -0.0148 N.ar    
   4 C4             2.2980    -0.0382    -0.0146 C.ar    
   5 C5             2.3589     1.3541    -0.0172 C.ar    
   6 C6             1.1777     2.0840     0.0006 C.ar    
   7 N7             3.4628    -0.8003     0.0091 N.pl3   
   8 C8             4.3424    -0.7211     1.0855 C.ar    
   9 C9             4.9837     0.4844     1.3922 C.ar    
  10 C10            4.7540     1.6808     0.5545 C.2     
  11 N11            3.5856     2.0318    -0.0554 N.pl3   
  12 C12            4.5858    -1.8440     1.8648 C.ar    
  13 C13            5.4481    -1.7653     2.9418 C.ar    
  14 C14            6.0737    -0.5705     3.2534 C.ar    
  15 C15            5.8469     0.5538     2.4853 C.ar    
  16 N16            5.6630     2.5943     0.2726 N.2     
  17 C17            5.1286     3.5333    -0.5094 C.2     
  18 C18            3.8253     3.2099    -0.7360 C.2     
  19 C19            2.8559     3.9711    -1.5514 C.ar    
  20 C20            2.7665     5.3582    -1.4210 C.ar    
  21 C21            2.0295     3.3069    -2.4596 C.ar    
  22 C22            1.1271     4.0236    -3.2180 C.ar    
  23 C23            1.0403     5.3976    -3.0803 C.ar    
  24 C24            1.8598     6.0627    -2.1855 C.ar    
  25 C25            5.8443     4.7445    -1.0495 C.3     
  26 C26            6.4660     4.4086    -2.3805 C.2     
  27 N27            7.1618     5.3454    -3.0549 N.am    
  28 C28            7.8271     5.0066    -4.2321 C.ar    
  29 N29            7.8530     3.7449    -4.6308 N.ar    
  30 C30            0.0525     6.1740    -3.9125 C.3     
  31 N31           -1.0323     5.3356    -4.4399 N.3     
  32 C32           -0.4393     7.4660    -3.2390 C.3     
  33 C33           -0.3479     8.1293    -4.6234 C.3     
  34 C34            0.7115     7.0691    -4.9752 C.3     
  35 O35            6.3404     3.2953    -2.8448 O.2     
  36 C36            8.4708     3.3816    -5.7385 C.ar    
  37 C37            9.1175     4.3129    -6.5265 C.ar    
  38 C38            9.1137     5.6474    -6.1434 C.ar    
  39 C39            8.4525     5.9982    -4.9797 C.ar    
  40 C40            8.4712     1.9315    -6.1487 C.3     
  41 H41           -0.9645     1.9315     0.0182 H       
  42 H42           -0.9490    -0.5262    -0.0029 H       
  43 H43            1.1960     3.1638     0.0089 H       
  44 H44            3.6636    -1.3930    -0.7320 H       
  45 H45            4.1007    -2.7797     1.6292 H       
  46 H46            5.6348    -2.6418     3.5446 H       
  47 H47            6.7416    -0.5177     4.1005 H       
  48 H48            6.3364     1.4848     2.7304 H       
  49 H49            3.4056     5.8784    -0.7229 H       
  50 H50            2.0967     2.2345    -2.5686 H       
  51 H51            0.4872     3.5111    -3.9210 H       
  52 H52            1.7868     7.1353    -2.0827 H       
  53 H53            5.1328     5.5604    -1.1764 H       
  54 H54            6.6238     5.0477    -0.3505 H       
  55 H55            7.1995     6.2554    -2.7211 H       
  56 H56           -0.6653     4.5127    -4.8941 H       
  57 H57           -1.6836     5.0860    -3.7108 H       
  58 H58           -1.4567     7.3977    -2.8538 H       
  59 H59            0.2630     7.8741    -2.5121 H       
  60 H60           -1.2623     8.0424    -5.2103 H       
  61 H61            0.0432     9.1463    -4.5953 H       
  62 H62            1.7289     7.3682    -4.7233 H       
  63 H63            0.6220     6.6825    -5.9904 H       
  64 H64            9.6213     4.0064    -7.4313 H       
  65 H65            9.6124     6.3952    -6.7421 H       
  66 H66            8.4293     7.0271    -4.6523 H       
  67 H67            7.6052     1.7323    -6.7799 H       
  68 H68            9.3834     1.7109    -6.7031 H       
  69 H69            8.4252     1.3024    -5.2597 H       
@<TRIPOS>BOND
   1    1    2 ar
   2    1    6 ar
   3    1   41 1
   4    2    3 ar
   5    2   42 1
   6    3    4 ar
   7    4    5 ar
   8    4    7 1
   9    5    6 ar
  10    5   11 1
  11    6   43 1
  12    7    8 1
  13    7   44 1
  14    8    9 ar
  15    8   12 ar
  16    9   10 1
  17    9   15 ar
  18   10   11 1
  19   10   16 2
  20   11   18 1
  21   12   13 ar
  22   12   45 1
  23   13   14 ar
  24   13   46 1
  25   14   15 ar
  26   14   47 1
  27   15   48 1
  28   16   17 1
  29   17   18 2
  30   17   25 1
  31   18   19 1
  32   19   20 ar
  33   19   21 ar
  34   20   24 ar
  35   20   49 1
  36   21   22 ar
  37   21   50 1
  38   22   23 ar
  39   22   51 1
  40   23   24 ar
  41   23   30 1
  42   24   52 1
  43   25   26 1
  44   25   53 1
  45   25   54 1
  46   26   27 am
  47   26   35 2
  48   27   28 1
  49   27   55 1
  50   28   29 ar
  51   28   39 ar
  52   29   36 ar
  53   30   31 1
  54   30   32 1
  55   30   34 1
  56   31   56 1
  57   31   57 1
  58   32   33 1
  59   32   58 1
  60   32   59 1
  61   33   34 1
  62   33   60 1
  63   33   61 1
  64   34   62 1
  65   34   63 1
  66   36   37 ar
  67   36   40 1
  68   37   38 ar
  69   37   64 1
  70   38   39 ar
  71   38   65 1
  72   39   66 1
  73   40   67 1
  74   40   68 1
  75   40   69 1

#	End of record

