#	Name: ASD00431047
#	Creating user name:	WinNT
#	Creation time:	15. 06. 2019 18:35

#	Modifying user name:	WinNT
#	Modification time:	15. 06. 2019 18:35

#	Program:	/corina/corina34_cracker 3.40 0067  02.08.2006

@<TRIPOS>MOLECULE
ASD00431047
  71   76    0    0    0
SMALL
NO_CHARGES


@<TRIPOS>ATOM
   1 C1            -0.0644     1.3955     0.0831 C.ar    
   2 C2            -0.0604    -0.0157     0.1049 C.ar    
   3 C3             1.2258    -0.7153     0.0810 C.ar    
   4 C4             2.4094     0.0419     0.0374 C.ar    
   5 C5             2.3379     1.3999     0.0184 C.ar    
   6 C6             1.1150     2.0682     0.0410 C.ar    
   7 C7            -1.2542    -0.7372     0.1487 C.ar    
   8 C8            -1.2251    -2.1322     0.1700 C.ar    
   9 C9             0.0536    -2.8455     0.1464 C.ar    
  10 C10            1.2642    -2.1244     0.1021 C.ar    
  11 C11           -2.4190    -2.8835     0.2148 C.ar    
  12 C12           -2.3565    -4.2404     0.2350 C.ar    
  13 C13           -1.1381    -4.9168     0.2129 C.ar    
  14 C14            0.0471    -4.2510     0.1692 C.ar    
  15 C15            2.5503    -2.8328     0.0778 C.2     
  16 O16            3.0543    -3.1426    -0.9856 O.2     
  17 N17            3.1724    -3.1400     1.2332 N.am    
  18 C18            4.4595    -3.8485     1.2251 C.3     
  19 C19            2.5794    -2.7672     2.5248 C.3     
  20 C20            3.6144    -1.9787     3.3334 C.3     
  21 C21            4.9010    -2.7997     3.4460 C.3     
  22 C22            5.4696    -3.0456     2.0509 C.3     
  23 N23            5.8844    -2.0607     4.2490 N.3     
  24 C24            7.0895    -2.8677     4.4786 C.3     
  25 C25            5.2969    -1.6109     5.5174 C.3     
  26 C26            6.2995    -0.7245     6.2596 C.3     
  27 C27            7.5804    -1.5211     6.5230 C.3     
  28 C28            8.1457    -2.0188     5.1898 C.3     
  29 C29            9.3742    -2.8536     5.4446 C.2     
  30 N30           10.3313    -2.9499     4.5005 N.am    
  31 O31            9.5017    -3.4389     6.4991 O.2     
  32 C32           11.5917    -3.6602     4.7692 C.3     
  33 C33           10.1441    -2.3530     3.1686 C.3     
  34 C34           10.4617    -3.4178     2.1126 C.3     
  35 O35           11.7488    -3.9786     2.3818 O.3     
  36 C36           11.8358    -4.6588     3.6320 C.3     
  37 H37           -0.9989     1.9368     0.0954 H       
  38 H38            3.3697    -0.4519     0.0196 H       
  39 H39            3.2516     1.9748    -0.0151 H       
  40 H40            1.1048     3.1481     0.0242 H       
  41 H41           -2.2000    -0.2162     0.1666 H       
  42 H42           -3.3759    -2.3831     0.2334 H       
  43 H43           -3.2739    -4.8092     0.2693 H       
  44 H44           -1.1350    -5.9967     0.2305 H       
  45 H45            0.9776    -4.7989     0.1521 H       
  46 H46            4.3343    -4.8387     1.6631 H       
  47 H47            4.8183    -3.9427     0.2001 H       
  48 H48            1.6980    -2.1483     2.3571 H       
  49 H49            2.2978    -3.6675     3.0710 H       
  50 H50            3.8275    -1.0356     2.8301 H       
  51 H51            3.2218    -1.7789     4.3304 H       
  52 H52            4.6825    -3.7530     3.9272 H       
  53 H53            6.3985    -3.6103     2.1309 H       
  54 H54            5.6649    -2.0901     1.5640 H       
  55 H55            6.8377    -3.7283     5.0984 H       
  56 H56            7.4838    -3.2119     3.5225 H       
  57 H57            4.3891    -1.0423     5.3158 H       
  58 H58            5.0534    -2.4774     6.1323 H       
  59 H59            6.5330     0.1492     5.6512 H       
  60 H60            5.8691    -0.4036     7.2082 H       
  61 H61            8.3136    -0.8804     7.0130 H       
  62 H62            7.3541    -2.3734     7.1636 H       
  63 H63            8.4082    -1.1654     4.5645 H       
  64 H64           12.4136    -2.9457     4.8131 H       
  65 H65           11.5175    -4.1938     5.7167 H       
  66 H66            9.1118    -2.0213     3.0567 H       
  67 H67           10.8178    -1.5046     3.0485 H       
  68 H68            9.7072    -4.2037     2.1496 H       
  69 H69           10.4636    -2.9603     1.1232 H       
  70 H70           12.8294    -5.0932     3.7418 H       
  71 H71           11.0859    -5.4490     3.6695 H       
@<TRIPOS>BOND
   1    1    2 ar
   2    1    6 ar
   3    1   37 1
   4    2    3 ar
   5    2    7 ar
   6    3    4 ar
   7    3   10 ar
   8    4    5 ar
   9    4   38 1
  10    5    6 ar
  11    5   39 1
  12    6   40 1
  13    7    8 ar
  14    7   41 1
  15    8    9 ar
  16    8   11 ar
  17    9   10 ar
  18    9   14 ar
  19   10   15 1
  20   11   12 ar
  21   11   42 1
  22   12   13 ar
  23   12   43 1
  24   13   14 ar
  25   13   44 1
  26   14   45 1
  27   15   16 2
  28   15   17 am
  29   17   18 1
  30   17   19 1
  31   18   22 1
  32   18   46 1
  33   18   47 1
  34   19   20 1
  35   19   48 1
  36   19   49 1
  37   20   21 1
  38   20   50 1
  39   20   51 1
  40   21   22 1
  41   21   23 1
  42   21   52 1
  43   22   53 1
  44   22   54 1
  45   23   24 1
  46   23   25 1
  47   24   28 1
  48   24   55 1
  49   24   56 1
  50   25   26 1
  51   25   57 1
  52   25   58 1
  53   26   27 1
  54   26   59 1
  55   26   60 1
  56   27   28 1
  57   27   61 1
  58   27   62 1
  59   28   29 1
  60   28   63 1
  61   29   30 am
  62   29   31 2
  63   30   32 1
  64   30   33 1
  65   32   36 1
  66   32   64 1
  67   32   65 1
  68   33   34 1
  69   33   66 1
  70   33   67 1
  71   34   35 1
  72   34   68 1
  73   34   69 1
  74   35   36 1
  75   36   70 1
  76   36   71 1

#	End of record

