#	Name: ASD01811495
#	Creating user name:	WinNT
#	Creation time:	15. 06. 2019 19:26

#	Modifying user name:	WinNT
#	Modification time:	15. 06. 2019 19:26

#	Program:	/corina/corina34_cracker 3.40 0067  02.08.2006

@<TRIPOS>MOLECULE
ASD01811495
  68   72    0    0    0
SMALL
NO_CHARGES


@<TRIPOS>ATOM
   1 C1            -8.3516     2.4279     2.4748 C.1     
   2 C2            -7.1612     3.1874     2.2371 C.ar    
   3 C3            -5.9204     2.6919     2.6428 C.ar    
   4 C4            -4.7776     3.4289     2.4107 C.ar    
   5 C5            -4.8590     4.6566     1.7778 C.ar    
   6 C6            -6.0852     5.1538     1.3735 C.ar    
   7 C7            -7.2353     4.4243     1.5933 C.ar    
   8 N8            -9.2960     1.8254     2.6634 N.1     
   9 N9            -2.0747     7.8340     1.5092 N.am    
  10 C10           -2.6168     7.3489     0.2327 C.3     
  11 C11           -3.9005     6.5603     0.5100 C.3     
  12 C12           -3.6062     5.4561     1.5280 C.3     
  13 C13           -3.1317     6.0836     2.8408 C.3     
  14 C14           -1.8393     6.8669     2.5899 C.3     
  15 C15           -1.7935     9.1406     1.6836 C.2     
  16 C16           -1.3297     9.6276     3.0005 C.ar    
  17 C17           -2.0139    10.6605     3.6455 C.ar    
  18 C18           -1.5816    11.1165     4.8747 C.ar    
  19 C19           -0.4716    10.5554     5.4750 C.ar    
  20 C20            0.2212     9.5221     4.8413 C.ar    
  21 C21           -0.2126     9.0534     3.6033 C.ar    
  22 O22           -1.9212     9.9185     0.7585 O.2     
  23 C23           -0.0067    11.0600     6.8168 C.3     
  24 C24           -3.2261    11.2787     2.9980 C.3     
  25 C25            3.7934     8.4449     8.1842 C.3     
  26 C26            2.9409     8.4728     6.9393 C.2     
  27 C27            3.1946     7.7091     5.8493 C.2     
  28 C28            4.3562     6.7529     5.7562 C.3     
  29 C29            5.3450     7.1034     6.8773 C.3     
  30 N30            4.6214     7.2276     8.1506 N.3     
  31 C31            1.4100     8.9223     5.4859 C.2     
  32 N32            1.8543     9.2012     6.6943 N.2     
  33 N33            2.2340     7.9841     4.9286 N.pl3   
  34 C34            5.5490     7.1903     9.2891 C.3     
  35 C35            4.7549     7.0546    10.5898 C.3     
  36 F36            5.6383     7.0191    11.6740 F       
  37 F37           -2.6079     4.6139     1.0267 F       
  38 H38           -5.8556     1.7341     3.1375 H       
  39 H39           -3.8172     3.0468     2.7239 H       
  40 H40           -6.1417     6.1129     0.8803 H       
  41 H41           -8.1913     4.8113     1.2729 H       
  42 H42           -2.8414     8.1966    -0.4147 H       
  43 H43           -1.8868     6.7002    -0.2514 H       
  44 H44           -4.6604     7.2313     0.9105 H       
  45 H45           -4.2607     6.1139    -0.4169 H       
  46 H46           -3.8988     6.7591     3.2193 H       
  47 H47           -2.9446     5.2979     3.5728 H       
  48 H48           -1.0458     6.1788     2.2980 H       
  49 H49           -1.5509     7.3965     3.4978 H       
  50 H50           -2.1137    11.9158     5.3690 H       
  51 H51            0.3172     8.2513     3.1110 H       
  52 H52           -0.4143    10.4262     7.6044 H       
  53 H53            1.0822    11.0347     6.8571 H       
  54 H54           -0.3519    12.0840     6.9593 H       
  55 H55           -4.1079    10.6831     3.2345 H       
  56 H56           -3.3613    12.2929     3.3737 H       
  57 H57           -3.0861    11.3072     1.9174 H       
  58 H58            4.4355     9.3254     8.2095 H       
  59 H59            3.1542     8.4303     9.0670 H       
  60 H60            4.0027     5.7296     5.8826 H       
  61 H61            4.8443     6.8584     4.7873 H       
  62 H62            6.0936     6.3155     6.9606 H       
  63 H63            5.8370     8.0480     6.6452 H       
  64 H64            2.1493     7.5910     4.0459 H       
  65 H65            6.2205     6.3383     9.1828 H       
  66 H66            6.1315     8.1112     9.3134 H       
  67 H67            4.0834     7.9066    10.6960 H       
  68 H68            4.1723     6.1337    10.5654 H       
@<TRIPOS>BOND
   1    1    2 1
   2    1    8 3
   3    2    3 ar
   4    2    7 ar
   5    3    4 ar
   6    3   38 1
   7    4    5 ar
   8    4   39 1
   9    5    6 ar
  10    5   12 1
  11    6    7 ar
  12    6   40 1
  13    7   41 1
  14    9   10 1
  15    9   14 1
  16    9   15 am
  17   10   11 1
  18   10   42 1
  19   10   43 1
  20   11   12 1
  21   11   44 1
  22   11   45 1
  23   12   13 1
  24   12   37 1
  25   13   14 1
  26   13   46 1
  27   13   47 1
  28   14   48 1
  29   14   49 1
  30   15   16 1
  31   15   22 2
  32   16   17 ar
  33   16   21 ar
  34   17   18 ar
  35   17   24 1
  36   18   19 ar
  37   18   50 1
  38   19   20 ar
  39   19   23 1
  40   20   21 ar
  41   20   31 1
  42   21   51 1
  43   23   52 1
  44   23   53 1
  45   23   54 1
  46   24   55 1
  47   24   56 1
  48   24   57 1
  49   25   26 1
  50   25   30 1
  51   25   58 1
  52   25   59 1
  53   26   27 2
  54   26   32 1
  55   27   28 1
  56   27   33 1
  57   28   29 1
  58   28   60 1
  59   28   61 1
  60   29   30 1
  61   29   62 1
  62   29   63 1
  63   30   34 1
  64   31   32 2
  65   31   33 1
  66   33   64 1
  67   34   35 1
  68   34   65 1
  69   34   66 1
  70   35   36 1
  71   35   67 1
  72   35   68 1

#	End of record

