#	Name: ASD04570009
#	Creating user name:	WinNT
#	Creation time:	15. 06. 2019 20:49

#	Modifying user name:	WinNT
#	Modification time:	15. 06. 2019 20:49

#	Program:	/corina/corina34_cracker 3.40 0067  02.08.2006

@<TRIPOS>MOLECULE
ASD04570009
 279  283    0    0    0
SMALL
NO_CHARGES


@<TRIPOS>ATOM
   1 C1             8.1241    -1.8191     2.4695 C.3     
   2 C2             9.5224    -1.4115     2.0012 C.3     
   3 C3            10.2966    -0.8459     3.1638 C.2     
   4 N4            10.2240    -2.5887     1.4720 N.3     
   5 O5            11.3310    -1.3716     3.5168 O.2     
   6 O6             8.2344    -2.6910     3.5963 O.3     
   7 C7            11.6768     1.7391     4.4205 C.3     
   8 C8            10.5921     0.7942     4.9415 C.3     
   9 C9             9.6564     1.5538     5.8461 C.2     
  10 N10            9.8395     0.2442     3.8112 N.am    
  11 O11            8.4769     1.6284     5.5736 O.2     
  12 C12           12.6816     0.9554     3.6159 C.ar    
  13 C13           12.4978     0.7890     2.2557 C.ar    
  14 C14           13.4174     0.0710     1.5159 C.ar    
  15 C15           14.5261    -0.4832     2.1390 C.ar    
  16 C16           14.7083    -0.3148     3.5040 C.ar    
  17 C17           13.7887     0.4088     4.2383 C.ar    
  18 O18           15.4320    -1.1903     1.4135 O.3     
  19 C19            8.5584     1.9178     8.8173 C.3     
  20 C20            9.2205     2.8886     7.8375 C.3     
  21 C21            9.9970     3.9265     8.6060 C.2     
  22 N22           10.1301     2.1501     6.9580 N.am    
  23 O23           11.1926     4.0384     8.4359 O.2     
  24 N24            6.1576    -0.9665     8.2856 N.pl3   
  25 C25            5.4565    -1.9380     8.9599 C.2     
  26 N26            4.6998    -2.7708     8.3020 N.2     
  27 N27            5.5535    -2.0311    10.3281 N.pl3   
  28 C28            7.6702     0.9403     8.0451 C.3     
  29 C29            7.0081    -0.0305     9.0250 C.3     
  30 C30           10.2480     7.0082     9.3846 C.3     
  31 C31           10.1179     5.7394    10.2296 C.3     
  32 C32            9.3936     6.0615    11.5113 C.2     
  33 N33            9.3629     4.7304     9.4824 N.am    
  34 O34            8.2235     5.7683    11.6368 O.2     
  35 S35           11.1960     6.6398     7.8825 S.3     
  36 C36           11.4818     6.9919    12.5417 C.3     
  37 C37           11.7700     7.7140    13.8747 C.3     
  38 C38            9.4386     7.1418    13.7777 C.3     
  39 C39            8.0565     7.6861    13.5234 C.2     
  40 N40           10.0462     6.6755    12.5181 N.am    
  41 O41            7.7286     8.0080    12.4010 O.2     
  42 C42           10.3778     8.2676    14.2781 C.3     
  43 C43            4.9206     7.2083    13.8461 C.3     
  44 C44            5.8414     8.3444    14.2961 C.3     
  45 C45            5.3016     8.9566    15.5629 C.2     
  46 N46            7.1849     7.8153    14.5433 N.am    
  47 O47            5.9731     8.9514    16.5729 O.2     
  48 S48            5.5704     6.4714    12.3212 S.3     
  49 C49            4.0390    11.5493    16.9231 C.3     
  50 C50            3.5480    10.1050    16.8051 C.3     
  51 C51            2.0416    10.0880    16.7691 C.2     
  52 N52            4.0727     9.5099    15.5736 N.am    
  53 O53            1.4631     9.6243    15.8092 O.2     
  54 N54            7.5081    13.0128    17.3580 N.pl3   
  55 C55            8.1784    14.2066    17.4836 C.2     
  56 N56            7.5177    15.3301    17.4646 N.2     
  57 N57            9.5454    14.2155    17.6291 N.pl3   
  58 C58            5.5604    11.5591    17.0850 C.3     
  59 C59            6.0514    13.0034    17.2030 C.3     
  60 C60           -0.6343     9.2170    18.2683 C.3     
  61 C61           -0.1275    10.5713    17.7686 C.3     
  62 C62           -0.6636    11.6663    18.6544 C.2     
  63 N63            1.3370    10.5879    17.8036 N.am    
  64 O64            0.1023    12.3893    19.2557 O.2     
  65 C65           -0.2003     8.1348    17.3135 C.ar    
  66 C66            1.0087     7.4914    17.5013 C.ar    
  67 C67            1.4067     6.4988    16.6254 C.ar    
  68 C68            0.5955     6.1492    15.5621 C.ar    
  69 C69           -0.6139     6.7920    15.3749 C.ar    
  70 C70           -1.0139     7.7816    16.2532 C.ar    
  71 C71           -2.5628    14.2195    18.8553 C.3     
  72 C72           -2.5152    12.9065    19.6394 C.3     
  73 C73           -3.9041    12.5456    20.0996 C.2     
  74 N74           -1.9941    11.8421    18.7783 N.am    
  75 O75           -4.4089    11.5020    19.7433 O.2     
  76 C76           -1.1610    14.6439    18.5008 C.ar    
  77 C77           -0.5911    14.2240    17.3135 C.ar    
  78 C78            0.6948    14.6133    16.9883 C.ar    
  79 C79            1.4107    15.4230    17.8502 C.ar    
  80 C80            0.8405    15.8437    19.0371 C.ar    
  81 C81           -0.4470    15.4579    19.3603 C.ar    
  82 C82           -5.8463    12.1419    22.5959 C.3     
  83 C83           -5.9355    13.0317    21.3544 C.3     
  84 C84           -6.6957    14.2887    21.6909 C.2     
  85 N85           -4.5853    13.3826    20.9071 N.am    
  86 O86           -6.1622    15.3710    21.5690 O.2     
  87 C87           -5.1849    10.8132    22.2245 C.3     
  88 C88           -5.0970     9.9367    23.4473 C.2     
  89 O89           -5.5201    10.3341    24.5070 O.2     
  90 O90           -4.5488     8.7147    23.3591 O.3     
  91 C91           10.5333    -5.2677     0.6182 C.3     
  92 C92           11.0595    -4.7917     1.9737 C.3     
  93 C93           12.4921    -4.3472     1.8285 C.2     
  94 N94           10.2433    -3.6662     2.4481 N.3     
  95 O95           12.8026    -3.2053     2.0940 O.2     
  96 C96            9.1726    -5.9412     0.8073 C.3     
  97 C97            8.1385    -4.8935     1.2244 C.3     
  98 C98            8.7381    -6.5912    -0.5079 C.3     
  99 C99           -9.3339    16.0052    21.1815 C.3     
 100 C100          -8.7074    15.4320    22.4543 C.3     
 101 C101          -9.7937    15.1112    23.4484 C.2     
 102 N102          -7.9684    14.2100    22.1272 N.am    
 103 O103          -9.9365    13.9739    23.8446 O.2     
 104 O104         -10.3136    15.0935    20.6806 O.3     
 105 C105         -12.0099    17.0338    25.6627 C.3     
 106 C106         -11.6625    15.7763    24.8634 C.3     
 107 C107         -12.8872    15.2925    24.1306 C.2     
 108 N108         -10.6065    16.0882    23.8971 N.am    
 109 O109         -12.8788    15.2161    22.9254 O.2     
 110 C110         -10.8208    17.4471    26.4911 C.2     
 111 N111          -9.8684    18.3687    26.1486 N.pl3   
 112 C112          -8.9893    18.4337    27.1717 C.2     
 113 N113          -9.3681    17.6010    28.1024 N.2     
 114 C114         -10.4941    16.9849    27.7131 C.2     
 115 C115          15.5317    -4.9071     2.6118 C.3     
 116 C116          14.8210    -4.7866     1.2623 C.3     
 117 C117          15.5169    -5.6577     0.2485 C.2     
 118 N118          13.4283    -5.2187     1.4035 N.am    
 119 O119          14.9094    -6.5515    -0.3019 O.2     
 120 N120          15.0133    -3.1154     5.9113 N.pl3   
 121 C121          15.4906    -3.0448     7.1987 C.2     
 122 N122          14.9557    -2.2125     8.0474 N.2     
 123 N123          16.5321    -3.8520     7.5910 N.pl3   
 124 C124          14.9038    -3.9302     3.6080 C.3     
 125 C125          15.6145    -4.0508     4.9575 C.3     
 126 C126          17.2328    -5.7433    -2.4375 C.3     
 127 C127          17.4909    -6.2904    -1.0322 C.3     
 128 C128          18.9729    -6.2938    -0.7587 C.2     
 129 N129          16.8144    -5.4436    -0.0466 N.am    
 130 O130          19.4200    -5.6519     0.1681 O.2     
 131 O131          17.8389    -4.4556    -2.5661 O.3     
 132 C132          21.5637    -8.0734    -0.2232 C.3     
 133 C133          21.2422    -7.0132    -1.2784 C.3     
 134 C134          21.9869    -7.3281    -2.5501 C.2     
 135 N135          19.8015    -7.0100    -1.5442 N.am    
 136 O136          21.3741    -7.6165    -3.5562 O.2     
 137 C137          20.8570    -7.7198     1.0870 C.3     
 138 C138          21.0804    -9.4409    -0.7104 C.3     
 139 C139          24.1516    -6.1551    -4.5760 C.3     
 140 C140          24.0545    -7.4871    -3.8295 C.3     
 141 C141          25.4406    -8.0029    -3.5401 C.2     
 142 N142          23.3340    -7.2893    -2.5694 N.am    
 143 O143          25.8227    -9.0276    -4.0522 O.2     
 144 H144           7.5619    -0.9291     2.7524 H       
 145 H145           7.6058    -2.3344     1.6608 H       
 146 H146           9.4381    -0.6569     1.2192 H       
 147 H147           9.8121    -2.8950     0.6034 H       
 148 H148           7.3843    -2.9900     3.9470 H       
 149 H149          11.2214     2.5021     3.7891 H       
 150 H150          12.1782     2.2161     5.2626 H       
 151 H151          11.0561    -0.0193     5.4992 H       
 152 H152           9.0122     0.6647     3.5289 H       
 153 H153          11.6343     1.2203     1.7712 H       
 154 H154          13.2732    -0.0590     0.4535 H       
 155 H155          15.5707    -0.7452     3.9913 H       
 156 H156          13.9324     0.5440     5.3001 H       
 157 H157          16.1503    -0.6539     1.0510 H       
 158 H158           9.3276     1.3631     9.3547 H       
 159 H159           7.9504     2.4774     9.5282 H       
 160 H160           8.4536     3.3789     7.2378 H       
 161 H161          11.0735     2.0904     7.1760 H       
 162 H162           6.0892    -0.9008     7.3202 H       
 163 H163           4.2051    -3.4562     8.7778 H       
 164 H164           6.1166    -1.4114    10.8177 H       
 165 H165           5.0588    -2.7166    10.8039 H       
 166 H166           6.9010     1.4950     7.5077 H       
 167 H167           8.2782     0.3807     7.3342 H       
 168 H168           6.4001     0.5291     9.7359 H       
 169 H169           7.7773    -0.5852     9.5624 H       
 170 H170           9.2555     7.3649     9.1094 H       
 171 H171          10.7637     7.7768     9.9603 H       
 172 H172          11.1106     5.3532    10.4605 H       
 173 H173           8.4067     4.6409     9.6185 H       
 174 H174          11.2303     7.8252     7.2480 H       
 175 H175          11.7313     7.6445    11.7050 H       
 176 H176          12.0649     6.0728    12.4843 H       
 177 H177          12.1370     7.0112    14.6226 H       
 178 H178          12.4803     8.5275    13.7269 H       
 179 H179           9.3979     6.3291    14.5030 H       
 180 H180          10.3031     8.3871    15.3590 H       
 181 H181          10.1679     9.2073    13.7673 H       
 182 H182           4.8739     6.4481    14.6258 H       
 183 H183           3.9210     7.6020    13.6622 H       
 184 H184           5.8881     9.1047    13.5164 H       
 185 H185           7.4472     7.5578    15.4410 H       
 186 H186           4.6763     5.5046    12.0475 H       
 187 H187           3.7658    12.1005    16.0233 H       
 188 H188           3.5781    12.0200    17.7915 H       
 189 H189           3.8974     9.5312    17.6635 H       
 190 H190           3.5357     9.5140    14.7658 H       
 191 H191           7.9998    12.1768    17.3721 H       
 192 H192           7.9906    16.1723    17.5532 H       
 193 H193          10.0371    13.3794    17.6432 H       
 194 H194          10.0183    15.0577    17.7177 H       
 195 H195           5.8336    11.0079    17.9848 H       
 196 H196           6.0213    11.0885    16.2166 H       
 197 H197           5.5905    13.4741    18.0714 H       
 198 H198           5.7782    13.5546    16.3032 H       
 199 H199          -0.2209     9.0166    19.2568 H       
 200 H200          -1.7226     9.2352    18.3265 H       
 201 H201          -0.4683    10.7319    16.7457 H       
 202 H202           1.7996    10.9587    18.5713 H       
 203 H203           1.6424     7.7645    18.3321 H       
 204 H204           2.3516     5.9966    16.7717 H       
 205 H205           0.9068     5.3742    14.8774 H       
 206 H206          -1.2475     6.5191    14.5439 H       
 207 H207          -1.9605     8.2812    16.1091 H       
 208 H208          -3.1411    14.0767    17.9425 H       
 209 H209          -3.0324    14.9906    19.4660 H       
 210 H210          -1.8645    13.0242    20.5059 H       
 211 H211          -2.6066    11.2638    18.2973 H       
 212 H212          -1.1504    13.5914    16.6401 H       
 213 H213           1.1403    14.2846    16.0610 H       
 214 H214           2.4156    15.7266    17.5965 H       
 215 H215           1.3999    16.4759    19.7107 H       
 216 H216          -0.8939    15.7896    20.2858 H       
 217 H217          -5.2517    12.6427    23.3599 H       
 218 H218          -6.8486    11.9538    22.9808 H       
 219 H219          -6.4537    12.4954    20.5595 H       
 220 H220          -4.1815    14.2173    21.1920 H       
 221 H221          -5.7794    10.3124    21.4605 H       
 222 H222          -4.1826    11.0013    21.8396 H       
 223 H223          -4.5147     8.1892    24.1702 H       
 224 H224          10.4261    -4.4134    -0.0503 H       
 225 H225          11.2350    -5.9812     0.1862 H       
 226 H226          11.0038    -5.6093     2.6925 H       
 227 H227          10.5684    -3.3363     3.3445 H       
 228 H228           9.2494    -6.7043     1.5818 H       
 229 H229           8.3626    -4.5428     2.2318 H       
 230 H230           8.1727    -4.0531     0.5311 H       
 231 H231           7.1435    -5.3382     1.2074 H       
 232 H232           9.4748    -7.3376    -0.8050 H       
 233 H233           7.7687    -7.0710    -0.3732 H       
 234 H234           8.6613    -5.8281    -1.2824 H       
 235 H235          -9.8084    16.9599    21.4083 H       
 236 H236          -8.5585    16.1542    20.4302 H       
 237 H237          -8.0253    16.1648    22.8853 H       
 238 H238          -8.3951    13.3444    22.2247 H       
 239 H239         -10.7528    15.3929    19.8727 H       
 240 H240         -12.2725    17.8393    24.9768 H       
 241 H241         -12.8550    16.8254    26.3188 H       
 242 H242         -11.3148    14.9983    25.5431 H       
 243 H243         -13.7724    15.0142    24.6832 H       
 244 H244         -10.4923    16.9978    23.5801 H       
 245 H245          -9.8318    18.8796    25.3249 H       
 246 H246          -8.1171    19.0693    27.2126 H       
 247 H247         -11.0413    16.2457    28.2792 H       
 248 H248          15.4284    -5.9253     2.9872 H       
 249 H249          16.5886    -4.6709     2.4883 H       
 250 H250          14.8475    -3.7491     0.9291 H       
 251 H251          13.1799    -6.1320     1.1911 H       
 252 H252          14.2785    -2.5459     5.6346 H       
 253 H253          15.2924    -2.1627     8.9557 H       
 254 H254          16.9301    -4.4713     6.9595 H       
 255 H255          16.8688    -3.8022     8.4993 H       
 256 H256          15.0070    -2.9121     3.2326 H       
 257 H257          13.8469    -4.1665     3.7315 H       
 258 H258          16.6714    -3.8146     4.8339 H       
 259 H259          15.5113    -5.0689     5.3328 H       
 260 H260          17.6607    -6.4216    -3.1757 H       
 261 H261          16.1588    -5.6575    -2.6024 H       
 262 H262          17.1062    -7.3079    -0.9620 H       
 263 H263          17.3003    -4.7287     0.3936 H       
 264 H264          17.7152    -4.0476    -3.4340 H       
 265 H265          22.6406    -8.1065    -0.0577 H       
 266 H266          21.5463    -6.0325    -0.9125 H       
 267 H267          19.4439    -7.5233    -2.2855 H       
 268 H268          21.0796    -8.4794     1.8363 H       
 269 H269          21.2073    -6.7492     1.4382 H       
 270 H270          19.7807    -7.6788     0.9197 H       
 271 H271          20.0035    -9.4078    -0.8758 H       
 272 H272          21.5838    -9.6928    -1.6437 H       
 273 H273          21.3094   -10.1962     0.0414 H       
 274 H274          23.1491    -5.7820    -4.7854 H       
 275 H275          24.6872    -5.4320    -3.9608 H       
 276 H276          24.6877    -6.3022    -5.5136 H       
 277 H277          23.5189    -8.2101    -4.4447 H       
 278 H278          26.0922    -7.4561    -2.8745 H       
 279 H279          23.8264    -7.1304    -1.7489 H       
@<TRIPOS>BOND
   1    1    6 1
   2    1    2 1
   3    1  144 1
   4    1  145 1
   5    2    4 1
   6    2    3 1
   7    2  146 1
   8    3    5 2
   9    3   10 am
  10    4   94 1
  11    4  147 1
  12    6  148 1
  13    7   12 1
  14    7    8 1
  15    7  149 1
  16    7  150 1
  17    8    9 1
  18    8   10 1
  19    8  151 1
  20    9   11 2
  21    9   22 am
  22   10  152 1
  23   12   13 ar
  24   12   17 ar
  25   13   14 ar
  26   13  153 1
  27   14   15 ar
  28   14  154 1
  29   15   16 ar
  30   15   18 1
  31   16   17 ar
  32   16  155 1
  33   17  156 1
  34   18  157 1
  35   19   28 1
  36   19   20 1
  37   19  158 1
  38   19  159 1
  39   20   22 1
  40   20   21 1
  41   20  160 1
  42   21   23 2
  43   21   33 am
  44   22  161 1
  45   24   29 1
  46   24   25 1
  47   24  162 1
  48   25   26 2
  49   25   27 1
  50   26  163 1
  51   27  164 1
  52   27  165 1
  53   28   29 1
  54   28  166 1
  55   28  167 1
  56   29  168 1
  57   29  169 1
  58   30   35 1
  59   30   31 1
  60   30  170 1
  61   30  171 1
  62   31   32 1
  63   31   33 1
  64   31  172 1
  65   32   34 2
  66   32   40 am
  67   33  173 1
  68   35  174 1
  69   36   40 1
  70   36   37 1
  71   36  175 1
  72   36  176 1
  73   37   42 1
  74   37  177 1
  75   37  178 1
  76   38   40 1
  77   38   39 1
  78   38   42 1
  79   38  179 1
  80   39   41 2
  81   39   46 am
  82   42  180 1
  83   42  181 1
  84   43   48 1
  85   43   44 1
  86   43  182 1
  87   43  183 1
  88   44   45 1
  89   44   46 1
  90   44  184 1
  91   45   47 2
  92   45   52 am
  93   46  185 1
  94   48  186 1
  95   49   58 1
  96   49   50 1
  97   49  187 1
  98   49  188 1
  99   50   52 1
 100   50   51 1
 101   50  189 1
 102   51   53 2
 103   51   63 am
 104   52  190 1
 105   54   59 1
 106   54   55 1
 107   54  191 1
 108   55   56 2
 109   55   57 1
 110   56  192 1
 111   57  193 1
 112   57  194 1
 113   58   59 1
 114   58  195 1
 115   58  196 1
 116   59  197 1
 117   59  198 1
 118   60   65 1
 119   60   61 1
 120   60  199 1
 121   60  200 1
 122   61   62 1
 123   61   63 1
 124   61  201 1
 125   62   64 2
 126   62   74 am
 127   63  202 1
 128   65   66 ar
 129   65   70 ar
 130   66   67 ar
 131   66  203 1
 132   67   68 ar
 133   67  204 1
 134   68   69 ar
 135   68  205 1
 136   69   70 ar
 137   69  206 1
 138   70  207 1
 139   71   76 1
 140   71   72 1
 141   71  208 1
 142   71  209 1
 143   72   73 1
 144   72   74 1
 145   72  210 1
 146   73   75 2
 147   73   85 am
 148   74  211 1
 149   76   77 ar
 150   76   81 ar
 151   77   78 ar
 152   77  212 1
 153   78   79 ar
 154   78  213 1
 155   79   80 ar
 156   79  214 1
 157   80   81 ar
 158   80  215 1
 159   81  216 1
 160   82   87 1
 161   82   83 1
 162   82  217 1
 163   82  218 1
 164   83   85 1
 165   83   84 1
 166   83  219 1
 167   84   86 2
 168   84  102 am
 169   85  220 1
 170   87   88 1
 171   87  221 1
 172   87  222 1
 173   88   89 2
 174   88   90 1
 175   90  223 1
 176   91   96 1
 177   91   92 1
 178   91  224 1
 179   91  225 1
 180   92   94 1
 181   92   93 1
 182   92  226 1
 183   93   95 2
 184   93  118 am
 185   94  227 1
 186   96   97 1
 187   96   98 1
 188   96  228 1
 189   97  229 1
 190   97  230 1
 191   97  231 1
 192   98  232 1
 193   98  233 1
 194   98  234 1
 195   99  104 1
 196   99  100 1
 197   99  235 1
 198   99  236 1
 199  100  102 1
 200  100  101 1
 201  100  237 1
 202  101  103 2
 203  101  108 am
 204  102  238 1
 205  104  239 1
 206  105  110 1
 207  105  106 1
 208  105  240 1
 209  105  241 1
 210  106  107 1
 211  106  108 1
 212  106  242 1
 213  107  109 2
 214  107  243 1
 215  108  244 1
 216  110  111 1
 217  110  114 2
 218  111  112 1
 219  111  245 1
 220  112  113 2
 221  112  246 1
 222  113  114 1
 223  114  247 1
 224  115  124 1
 225  115  116 1
 226  115  248 1
 227  115  249 1
 228  116  118 1
 229  116  117 1
 230  116  250 1
 231  117  119 2
 232  117  129 am
 233  118  251 1
 234  120  125 1
 235  120  121 1
 236  120  252 1
 237  121  122 2
 238  121  123 1
 239  122  253 1
 240  123  254 1
 241  123  255 1
 242  124  125 1
 243  124  256 1
 244  124  257 1
 245  125  258 1
 246  125  259 1
 247  126  131 1
 248  126  127 1
 249  126  260 1
 250  126  261 1
 251  127  129 1
 252  127  128 1
 253  127  262 1
 254  128  130 2
 255  128  135 am
 256  129  263 1
 257  131  264 1
 258  132  137 1
 259  132  138 1
 260  132  133 1
 261  132  265 1
 262  133  135 1
 263  133  134 1
 264  133  266 1
 265  134  136 2
 266  134  142 am
 267  135  267 1
 268  137  268 1
 269  137  269 1
 270  137  270 1
 271  138  271 1
 272  138  272 1
 273  138  273 1
 274  139  140 1
 275  139  274 1
 276  139  275 1
 277  139  276 1
 278  140  141 1
 279  140  142 1
 280  140  277 1
 281  141  143 2
 282  141  278 1
 283  142  279 1

#	End of record

