#	Name: ASD01820048
#	Creating user name:	WinNT
#	Creation time:	15. 06. 2019 19:36

#	Modifying user name:	WinNT
#	Modification time:	15. 06. 2019 19:36

#	Program:	/corina/corina34_cracker 3.40 0067  02.08.2006

@<TRIPOS>MOLECULE
ASD01820048
 108  111    0    0    0
SMALL
NO_CHARGES


@<TRIPOS>ATOM
   1 N1           -10.5730    -5.7400     3.0238 N.am    
   2 C2           -10.0583    -6.5523     4.1291 C.3     
   3 C3            -9.2850    -7.7468     3.5670 C.3     
   4 C4            -8.6606    -8.5375     4.7184 C.3     
   5 N5            -7.2995    -8.0451     4.9692 N.4     
   6 C6            -6.7220    -8.7630     6.1133 C.3     
   7 C7            -5.3044    -8.2502     6.3744 C.3     
   8 C8            -4.7029    -8.9979     7.5661 C.3     
   9 C9            -3.2853    -8.4850     7.8272 C.3     
  10 C10           -2.6838    -9.2328     9.0188 C.3     
  11 C11           -1.2662    -8.7199     9.2800 C.3     
  12 C12           -6.4694    -8.2726     3.7787 C.3     
  13 C13           -7.3459    -6.6072     5.2662 C.3     
  14 N14           -0.6887    -9.4378    10.4241 N.4     
  15 C15            0.6724    -8.9454    10.6748 C.3     
  16 C16            1.3503    -9.8309    11.7223 C.3     
  17 C17            2.6494   -10.3984    11.1467 C.3     
  18 N18            3.3126   -11.2238    12.1592 N.am    
  19 C19           -1.5188    -9.2103    11.6145 C.3     
  20 C20           -0.6423   -10.8757    10.1271 C.3     
  21 C21            3.1063   -12.5433    12.3200 C.2     
  22 C22            3.9507   -13.0196    13.4358 C.ar    
  23 C23            4.6507   -11.8877    13.9000 C.ar    
  24 C24            4.2123   -10.7631    13.0469 C.2     
  25 C25            4.1530   -14.2504    14.0394 C.ar    
  26 C26            5.0431   -14.3593    15.0963 C.ar    
  27 C27            5.7296   -13.2493    15.5516 C.ar    
  28 C28            5.5374   -12.0118    14.9575 C.ar    
  29 O29            4.5944    -9.6138    13.1373 O.2     
  30 O30            2.3524   -13.2287    11.6589 O.2     
  31 C31          -11.7553    -5.9442     2.4154 C.2     
  32 C32          -11.9212    -4.9276     1.3553 C.ar    
  33 C33          -10.7586    -4.1318     1.3987 C.ar    
  34 C34           -9.9282    -4.6882     2.4875 C.2     
  35 C35          -12.9121    -4.6498     0.4273 C.ar    
  36 C36          -12.7525    -3.5904    -0.4522 C.ar    
  37 C37          -11.6123    -2.8100    -0.4096 C.ar    
  38 C38          -10.6128    -3.0760     0.5132 C.ar    
  39 O39          -12.5529    -6.8176     2.6910 O.2     
  40 O40           -8.8418    -4.2707     2.8346 O.2     
  41 C41          -10.2406    -8.6514     2.7863 C.3     
  42 C42            1.6646    -8.9990    12.9672 C.3     
  43 C43           -9.4438    -9.7608     2.0969 C.3     
  44 C44            0.3698    -8.7156    13.7315 C.3     
  45 C45          -10.4096   -10.7618     1.4597 C.3     
  46 C46           -0.1619   -10.0174    14.3344 C.3     
  47 C47            0.6481    -7.7111    14.8515 C.3     
  48 C48           -8.5530    -9.1506     1.0129 C.3     
  49 H49           -9.3941    -5.9472     4.7461 H       
  50 H50          -10.8906    -6.9108     4.7348 H       
  51 H51           -8.4981    -7.3901     2.9025 H       
  52 H52           -9.2645    -8.4094     5.6167 H       
  53 H53           -8.6217    -9.5944     4.4544 H       
  54 H54           -7.3379    -8.5942     6.9966 H       
  55 H55           -6.6875    -9.8300     5.8929 H       
  56 H56           -4.6884    -8.4190     5.4911 H       
  57 H57           -5.3388    -7.1832     6.5948 H       
  58 H58           -5.3188    -8.8291     8.4494 H       
  59 H59           -4.6684   -10.0648     7.3457 H       
  60 H60           -2.6693    -8.6538     6.9439 H       
  61 H61           -3.3197    -7.4181     8.0476 H       
  62 H62           -3.2997    -9.0639     9.9022 H       
  63 H63           -2.6493   -10.2997     8.7985 H       
  64 H64           -0.6503    -8.8887     8.3967 H       
  65 H65           -1.3007    -7.6529     9.5004 H       
  66 H66           -6.9134    -7.7633     2.9234 H       
  67 H67           -5.4672    -7.8816     3.9544 H       
  68 H68           -6.4116    -9.3419     3.5750 H       
  69 H69           -8.0741    -6.4227     6.0560 H       
  70 H70           -6.3618    -6.2719     5.5936 H       
  71 H71           -7.6363    -6.0601     4.3693 H       
  72 H72            1.2458    -8.9746     9.7483 H       
  73 H73            0.6260    -7.9198    11.0412 H       
  74 H74            0.6838   -10.6503    11.9916 H       
  75 H75            2.4234   -11.0081    10.2719 H       
  76 H76            3.3075    -9.5787    10.8582 H       
  77 H77           -2.5430    -9.5209    11.4081 H       
  78 H78           -1.1244    -9.7904    12.4488 H       
  79 H79           -1.5049    -8.1507    11.8701 H       
  80 H80            0.3635   -11.1484     9.8074 H       
  81 H81           -0.9047   -11.4402    11.0218 H       
  82 H82           -1.3511   -11.1055     9.3316 H       
  83 H83            3.6191   -15.1209    13.6881 H       
  84 H84            5.2011   -15.3181    15.5677 H       
  85 H85            6.4205   -13.3469    16.3759 H       
  86 H86            6.0765   -11.1479    15.3174 H       
  87 H87          -13.8049    -5.2564     0.3893 H       
  88 H88          -13.5241    -3.3734    -1.1760 H       
  89 H89          -11.4995    -1.9873    -1.1001 H       
  90 H90           -9.7241    -2.4630     0.5419 H       
  91 H91          -10.9625    -9.0950     3.4720 H       
  92 H92          -10.7671    -8.0620     2.0357 H       
  93 H93            2.3519    -9.5505    13.6088 H       
  94 H94            2.1236    -8.0567    12.6682 H       
  95 H95           -8.8227   -10.2726     2.8320 H       
  96 H96           -0.3722    -8.3019    13.0485 H       
  97 H97          -11.0307   -10.2500     0.7246 H       
  98 H98           -9.8419   -11.5522     0.9685 H       
  99 H99          -11.0442   -11.1965     2.2320 H       
 100 H100          -1.0804    -9.8143    14.8851 H       
 101 H101          -0.3672   -10.7304    13.5359 H       
 102 H102           0.5830   -10.4350    15.0117 H       
 103 H103           1.0269    -6.7837    14.4220 H       
 104 H104          -0.2744    -7.5093    15.3960 H       
 105 H105           1.3900    -8.1249    15.5345 H       
 106 H106          -9.1640    -8.5597     0.3305 H       
 107 H107          -7.8032    -8.5098     1.4768 H       
 108 H108          -8.0571    -9.9477     0.4589 H       
@<TRIPOS>BOND
   1    1    2 1
   2    1   31 am
   3    1   34 am
   4    2    3 1
   5    2   49 1
   6    2   50 1
   7    3    4 1
   8    3   41 1
   9    3   51 1
  10    4    5 1
  11    4   52 1
  12    4   53 1
  13    5    6 1
  14    5   12 1
  15    5   13 1
  16    6    7 1
  17    6   54 1
  18    6   55 1
  19    7    8 1
  20    7   56 1
  21    7   57 1
  22    8    9 1
  23    8   58 1
  24    8   59 1
  25    9   10 1
  26    9   60 1
  27    9   61 1
  28   10   11 1
  29   10   62 1
  30   10   63 1
  31   11   14 1
  32   11   64 1
  33   11   65 1
  34   12   66 1
  35   12   67 1
  36   12   68 1
  37   13   69 1
  38   13   70 1
  39   13   71 1
  40   14   15 1
  41   14   19 1
  42   14   20 1
  43   15   16 1
  44   15   72 1
  45   15   73 1
  46   16   17 1
  47   16   42 1
  48   16   74 1
  49   17   18 1
  50   17   75 1
  51   17   76 1
  52   18   21 am
  53   18   24 am
  54   19   77 1
  55   19   78 1
  56   19   79 1
  57   20   80 1
  58   20   81 1
  59   20   82 1
  60   21   22 1
  61   21   30 2
  62   22   23 ar
  63   22   25 ar
  64   23   24 1
  65   23   28 ar
  66   24   29 2
  67   25   26 ar
  68   25   83 1
  69   26   27 ar
  70   26   84 1
  71   27   28 ar
  72   27   85 1
  73   28   86 1
  74   31   32 1
  75   31   39 2
  76   32   33 ar
  77   32   35 ar
  78   33   34 1
  79   33   38 ar
  80   34   40 2
  81   35   36 ar
  82   35   87 1
  83   36   37 ar
  84   36   88 1
  85   37   38 ar
  86   37   89 1
  87   38   90 1
  88   41   43 1
  89   41   91 1
  90   41   92 1
  91   42   44 1
  92   42   93 1
  93   42   94 1
  94   43   45 1
  95   43   48 1
  96   43   95 1
  97   44   46 1
  98   44   47 1
  99   44   96 1
 100   45   97 1
 101   45   98 1
 102   45   99 1
 103   46  100 1
 104   46  101 1
 105   46  102 1
 106   47  103 1
 107   47  104 1
 108   47  105 1
 109   48  106 1
 110   48  107 1
 111   48  108 1

#	End of record

