#	Name: ASD09800023
#	Creating user name:	WinNT
#	Creation time:	15. 06. 2019 21:24

#	Modifying user name:	WinNT
#	Modification time:	15. 06. 2019 21:24

#	Program:	/corina/corina34_cracker 3.40 0067  02.08.2006

@<TRIPOS>MOLECULE
ASD09800023
  82   87    0    0    0
SMALL
NO_CHARGES


@<TRIPOS>ATOM
   1 C1             0.2920     1.3640    -0.4423 C.ar    
   2 C2             0.4050     0.0195    -0.6273 C.ar    
   3 C3             1.4483     2.1491    -0.3070 C.ar    
   4 C4             2.7204     1.5305    -0.3649 C.ar    
   5 C5             2.8011     0.1358    -0.5572 C.ar    
   6 C6             1.6533    -0.5944    -0.6852 C.ar    
   7 C7             1.3668     3.5452    -0.1145 C.ar    
   8 C8             2.5263     4.2794     0.0134 C.ar    
   9 C9             3.7711     3.6592    -0.0453 C.ar    
  10 C10            3.8780     2.3145    -0.2305 C.ar    
  11 O11            4.0116    -0.4774    -0.6154 O.3     
  12 C12            4.5521    -0.9297     0.5424 C.ar    
  13 C13            5.7992    -1.5679     0.5255 C.ar    
  14 N14            3.9015    -0.7608     1.6807 N.ar    
  15 C15            6.3379    -2.0262     1.7294 C.ar    
  16 C16            5.6123    -1.8288     2.8927 C.ar    
  17 C17            4.3907    -1.1853     2.8302 C.ar    
  18 C18            6.5334    -1.7537    -0.7478 C.ar    
  19 N19            6.0183    -1.3165    -1.8952 N.ar    
  20 C20            7.7807    -2.3857    -0.7625 C.ar    
  21 C21            8.4286    -2.5361    -1.9747 C.ar    
  22 N22            7.8539    -2.0810    -3.0774 N.ar    
  23 C23            6.6731    -1.4813    -3.0338 C.ar    
  24 N24            6.1073    -1.0201    -4.2098 N.pl3   
  25 C25            6.8131    -1.1978    -5.4812 C.3     
  26 C26            5.9767    -0.6037    -6.6163 C.3     
  27 N27            6.6844    -0.7819    -7.8911 N.3     
  28 C28            5.9092    -0.2221    -9.0063 C.3     
  29 C29            6.8557     0.1491   -10.1497 C.3     
  30 C30            6.0483     0.7321   -11.3112 C.3     
  31 C31            5.0381    -0.3067   -11.8023 C.3     
  32 C32            4.0916    -0.6779   -10.6589 C.3     
  33 C33            4.8990    -1.2609    -9.4974 C.3     
  34 N34            4.2629     0.2531   -12.9175 N.3     
  35 N35            0.1251     4.1756    -0.0548 N.am    
  36 C36            0.8864     6.7950     0.3110 C.ar    
  37 C37            0.5648     6.9724     1.6447 C.ar    
  38 C38            1.3114     7.8360     2.4269 C.ar    
  39 C39            2.3776     8.5205     1.8753 C.ar    
  40 C40            2.6986     8.3427     0.5423 C.ar    
  41 C41            1.9565     7.4763    -0.2382 C.ar    
  42 Cl42          -0.7751     6.1126     2.3367 Cl      
  43 C43            1.7397    -2.0848    -0.8907 C.3     
  44 S44           -0.0632     5.6952    -0.6856 S.o2    
  45 O45            0.5549     5.6780    -1.9650 O.2     
  46 O46           -1.4254     6.0468    -0.4851 O.2     
  47 H47           -0.6837     1.8255    -0.4041 H       
  48 H48           -0.4875    -0.5798    -0.7305 H       
  49 H49            2.4684     5.3478     0.1604 H       
  50 H50            4.6665     4.2543     0.0570 H       
  51 H51            4.8525     1.8508    -0.2737 H       
  52 H52            7.2967    -2.5228     1.7529 H       
  53 H53            5.9996    -2.1712     3.8409 H       
  54 H54            3.8248    -1.0313     3.7371 H       
  55 H55            8.2276    -2.7476     0.1517 H       
  56 H56            9.3934    -3.0193    -2.0216 H       
  57 H57            5.2435    -0.5793    -4.1922 H       
  58 H58            7.7767    -0.6903    -5.4359 H       
  59 H59            6.9706    -2.2608    -5.6639 H       
  60 H60            5.0131    -1.1112    -6.6616 H       
  61 H61            5.8192     0.4593    -6.4336 H       
  62 H62            7.6072    -0.3756    -7.8523 H       
  63 H63            5.3795     0.6690    -8.6694 H       
  64 H64            7.5754     0.8892    -9.7999 H       
  65 H65            7.3855    -0.7420   -10.4867 H       
  66 H66            5.5186     1.6232   -10.9743 H       
  67 H67            6.7226     0.9965   -12.1258 H       
  68 H68            5.5678    -1.1978   -12.1392 H       
  69 H69            3.5619     0.2132   -10.3219 H       
  70 H70            3.3719    -1.4180   -11.0087 H       
  71 H71            5.4287    -2.1520    -9.8343 H       
  72 H72            4.2247    -1.5253    -8.6828 H       
  73 H73            3.5881    -0.4144   -13.2598 H       
  74 H74            3.8138     1.1157   -12.6486 H       
  75 H75           -0.6287     3.7243     0.3562 H       
  76 H76            1.0605     7.9752     3.4681 H       
  77 H77            2.9601     9.1948     2.4856 H       
  78 H78            3.5317     8.8782     0.1116 H       
  79 H79            2.2078     7.3376    -1.2794 H       
  80 H80            1.7372    -2.5859     0.0773 H       
  81 H81            0.8839    -2.4211    -1.4761 H       
  82 H82            2.6604    -2.3255    -1.4221 H       
@<TRIPOS>BOND
   1    1    2 ar
   2    1    3 ar
   3    1   47 1
   4    2    6 ar
   5    2   48 1
   6    3    4 ar
   7    3    7 ar
   8    4    5 ar
   9    4   10 ar
  10    5    6 ar
  11    5   11 1
  12    6   43 1
  13    7    8 ar
  14    7   35 1
  15    8    9 ar
  16    8   49 1
  17    9   10 ar
  18    9   50 1
  19   10   51 1
  20   11   12 1
  21   12   13 ar
  22   12   14 ar
  23   13   15 ar
  24   13   18 1
  25   14   17 ar
  26   15   16 ar
  27   15   52 1
  28   16   17 ar
  29   16   53 1
  30   17   54 1
  31   18   19 ar
  32   18   20 ar
  33   19   23 ar
  34   20   21 ar
  35   20   55 1
  36   21   22 ar
  37   21   56 1
  38   22   23 ar
  39   23   24 1
  40   24   25 1
  41   24   57 1
  42   25   26 1
  43   25   58 1
  44   25   59 1
  45   26   27 1
  46   26   60 1
  47   26   61 1
  48   27   28 1
  49   27   62 1
  50   28   29 1
  51   28   33 1
  52   28   63 1
  53   29   30 1
  54   29   64 1
  55   29   65 1
  56   30   31 1
  57   30   66 1
  58   30   67 1
  59   31   32 1
  60   31   34 1
  61   31   68 1
  62   32   33 1
  63   32   69 1
  64   32   70 1
  65   33   71 1
  66   33   72 1
  67   34   73 1
  68   34   74 1
  69   35   44 am
  70   35   75 1
  71   36   37 ar
  72   36   44 1
  73   36   41 ar
  74   37   38 ar
  75   37   42 1
  76   38   39 ar
  77   38   76 1
  78   39   40 ar
  79   39   77 1
  80   40   41 ar
  81   40   78 1
  82   41   79 1
  83   43   80 1
  84   43   81 1
  85   43   82 1
  86   44   45 2
  87   44   46 2

#	End of record

