#	Name: ASD01810374
#	Creating user name:	WinNT
#	Creation time:	15. 06. 2019 19:24

#	Modifying user name:	WinNT
#	Modification time:	15. 06. 2019 19:24

#	Program:	/corina/corina34_cracker 3.40 0067  02.08.2006

@<TRIPOS>MOLECULE
ASD01810374
  34   34    0    0    0
SMALL
NO_CHARGES


@<TRIPOS>ATOM
   1 C1            -6.6130    -4.7948     2.0069 C.ar    
   2 C2            -7.5080    -3.7501     1.8558 C.ar    
   3 N3            -7.3211    -2.8525     0.9045 N.ar    
   4 C4            -6.2795    -2.9523     0.0973 C.ar    
   5 C5            -5.3848    -3.9966     0.2484 C.ar    
   6 N6            -5.5717    -4.8945     1.1999 N.ar    
   7 C7            -4.1970    -4.1103    -0.6722 C.3     
   8 C8            -6.0666    -1.9287    -0.9880 C.3     
   9 C9            -3.5633    -2.7304    -0.8599 C.3     
  10 C10           -7.4169    -1.3494    -1.4147 C.3     
  11 C11           -3.1687    -5.0650    -0.0623 C.3     
  12 C12           -4.6532    -4.6508    -2.0289 C.3     
  13 C13           -5.1731    -0.8043    -0.4605 C.3     
  14 C14           -5.3937    -2.5931    -2.1908 C.3     
  15 H15           -6.7633    -5.5260     2.7874 H       
  16 H16           -8.3594    -3.6688     2.5153 H       
  17 H17           -3.8097    -2.0983    -0.0067 H       
  18 H18           -2.4809    -2.8347    -0.9342 H       
  19 H19           -3.9480    -2.2750    -1.7724 H       
  20 H20           -7.8963    -0.8760    -0.5579 H       
  21 H21           -7.2629    -0.6091    -2.1998 H       
  22 H22           -8.0534    -2.1504    -1.7906 H       
  23 H23           -3.6202    -6.0481     0.0714 H       
  24 H24           -2.3096    -5.1473    -0.7281 H       
  25 H25           -2.8438    -4.6799     0.9042 H       
  26 H26           -5.6318    -4.2382    -2.2740 H       
  27 H27           -3.9344    -4.3615    -2.7955 H       
  28 H28           -4.7182    -5.7379    -1.9836 H       
  29 H29           -4.1395    -0.9958    -0.7491 H       
  30 H30           -5.4980     0.1465    -0.8829 H       
  31 H31           -5.2450    -0.7626     0.6263 H       
  32 H32           -6.1568    -2.9799    -2.8662 H       
  33 H33           -4.7818    -1.8597    -2.7158 H       
  34 H34           -4.7631    -3.4132    -1.8472 H       
@<TRIPOS>BOND
   1    1    2 ar
   2    1    6 ar
   3    1   15 1
   4    2    3 ar
   5    2   16 1
   6    3    4 ar
   7    4    5 ar
   8    4    8 1
   9    5    6 ar
  10    5    7 1
  11    7    9 1
  12    7   11 1
  13    7   12 1
  14    8   10 1
  15    8   13 1
  16    8   14 1
  17    9   17 1
  18    9   18 1
  19    9   19 1
  20   10   20 1
  21   10   21 1
  22   10   22 1
  23   11   23 1
  24   11   24 1
  25   11   25 1
  26   12   26 1
  27   12   27 1
  28   12   28 1
  29   13   29 1
  30   13   30 1
  31   13   31 1
  32   14   32 1
  33   14   33 1
  34   14   34 1

#	End of record

