#	Name: ASD03430043
#	Creating user name:	WinNT
#	Creation time:	15. 06. 2019 20:40

#	Modifying user name:	WinNT
#	Modification time:	15. 06. 2019 20:40

#	Program:	/corina/corina34_cracker 3.40 0067  02.08.2006

@<TRIPOS>MOLECULE
ASD03430043
  47   51    0    0    0
SMALL
NO_CHARGES


@<TRIPOS>ATOM
   1 C1            -0.0167     1.3806     0.0096 C.ar    
   2 C2             0.0021    -0.0041     0.0020 C.ar    
   3 C3             1.2037    -0.6810    -0.0149 C.ar    
   4 C4             2.4095     0.0137    -0.0128 C.ar    
   5 C5             2.3874     1.4051    -0.0086 C.ar    
   6 C6             1.1839     2.0869     0.0020 C.ar    
   7 O7             3.4721    -0.8413    -0.0036 O.3     
   8 C8             1.5521    -2.1450    -0.0520 C.3     
   9 C9             3.0373    -2.1438    -0.4392 C.3     
  10 C10            0.4247    -3.8569     1.0059 C.ar    
  11 C11            1.3180    -2.8212     1.2661 C.ar    
  12 C12            0.7165    -2.9025    -1.0434 C.2     
  13 N13            0.0916    -3.8776    -0.3536 N.am    
  14 O14            0.6226    -2.6808    -2.2316 O.2     
  15 C15            1.7907    -2.6078     2.5424 C.ar    
  16 C16            1.3770    -3.4255     3.5806 C.ar    
  17 C17            0.4892    -4.4557     3.3328 C.ar    
  18 C18            0.0137    -4.6731     2.0558 C.ar    
  19 C19           -0.7548    -4.7681    -0.9079 C.2     
  20 O20           -1.0188    -4.7148    -2.2266 O.3     
  21 O21           -1.2792    -5.6186    -0.2174 O.2     
  22 C22           -1.9397    -5.7053    -2.7550 C.3     
  23 C23           -3.2946    -5.5648    -2.0584 C.3     
  24 C24           -2.1146    -5.4878    -4.2593 C.3     
  25 C25           -1.3801    -7.1071    -2.5040 C.3     
  26 Br26           3.0056    -1.1978     2.8767 Br      
  27 O27           -1.0498     2.2735     0.0188 O.3     
  28 C28           -0.4713     3.5261     0.4303 C.3     
  29 O29            0.9020     3.4231     0.0065 O.3     
  30 H30           -0.9266    -0.5554     0.0097 H       
  31 H31            3.3162     1.9563    -0.0132 H       
  32 H32            3.1564    -2.2512    -1.5173 H       
  33 H33            3.5762    -2.9291     0.0910 H       
  34 H34            1.7473    -3.2589     4.5813 H       
  35 H35            0.1665    -5.0935     4.1424 H       
  36 H36           -0.6800    -5.4798     1.8702 H       
  37 H37           -3.6933    -4.5662    -2.2372 H       
  38 H38           -3.9859    -6.3084    -2.4550 H       
  39 H39           -3.1700    -5.7198    -0.9867 H       
  40 H40           -1.1493    -5.5879    -4.7555 H       
  41 H41           -2.8059    -6.2314    -4.6559 H       
  42 H42           -2.5132    -4.4892    -4.4381 H       
  43 H43           -1.2555    -7.2620    -1.4323 H       
  44 H44           -2.0714    -7.8506    -2.9006 H       
  45 H45           -0.4148    -7.2072    -3.0002 H       
  46 H46           -0.9638     4.3588    -0.0719 H       
  47 H47           -0.5334     3.6394     1.5126 H       
@<TRIPOS>BOND
   1    1    2 ar
   2    1    6 ar
   3    1   27 1
   4    2    3 ar
   5    2   30 1
   6    3    4 ar
   7    3    8 1
   8    4    5 ar
   9    4    7 1
  10    5    6 ar
  11    5   31 1
  12    6   29 1
  13    7    9 1
  14    8    9 1
  15    8   11 1
  16    8   12 1
  17    9   32 1
  18    9   33 1
  19   10   11 ar
  20   10   13 1
  21   10   18 ar
  22   11   15 ar
  23   12   13 am
  24   12   14 2
  25   13   19 am
  26   15   16 ar
  27   15   26 1
  28   16   17 ar
  29   16   34 1
  30   17   18 ar
  31   17   35 1
  32   18   36 1
  33   19   20 1
  34   19   21 2
  35   20   22 1
  36   22   23 1
  37   22   24 1
  38   22   25 1
  39   23   37 1
  40   23   38 1
  41   23   39 1
  42   24   40 1
  43   24   41 1
  44   24   42 1
  45   25   43 1
  46   25   44 1
  47   25   45 1
  48   27   28 1
  49   28   29 1
  50   28   46 1
  51   28   47 1

#	End of record

