#	Name: ASD01720097
#	Creating user name:	WinNT
#	Creation time:	15. 06. 2019 19:23

#	Modifying user name:	WinNT
#	Modification time:	15. 06. 2019 19:23

#	Program:	/corina/corina34_cracker 3.40 0067  02.08.2006

@<TRIPOS>MOLECULE
ASD01720097
  59   62    0    0    0
SMALL
NO_CHARGES


@<TRIPOS>ATOM
   1 C1            -0.0165     1.3645     0.0095 C.ar    
   2 C2             0.0021    -0.0041     0.0020 C.ar    
   3 C3             1.2239    -0.6746    -0.0132 C.ar    
   4 N4             2.3695    -0.0074    -0.0202 N.ar    
   5 C5             2.4006     1.3140    -0.0134 C.ar    
   6 C6             1.2064     2.0517     0.0016 C.ar    
   7 N7             1.2414    -2.0588    -0.0209 N.3     
   8 O8             3.5909     1.9597    -0.0203 O.3     
   9 C9             4.7682     1.1498    -0.0350 C.3     
  10 C10            6.0059     2.0492    -0.0411 C.3     
  11 C11            7.2664     1.1821    -0.0568 C.3     
  12 C12            7.3295     0.3979    -1.3690 C.3     
  13 C13            8.5021     2.0764     0.0629 C.3     
  14 C14            1.2369     3.5235     0.0092 C.2     
  15 O15            2.3026     4.1098     0.0021 O.2     
  16 C16            2.6350    -2.5735    -0.0369 C.3     
  17 C17            2.5114    -4.0141    -0.5779 C.3     
  18 C18            1.1996    -4.0263    -1.3896 C.3     
  19 C19            0.6410    -2.5920    -1.2707 C.3     
  20 C20            2.5441    -4.2207    -2.0936 C.3     
  21 C21            2.8699    -5.6024    -2.5993 C.2     
  22 O22            3.0927    -6.4953    -1.8164 O.2     
  23 O23            2.9124    -5.8411    -3.9195 O.3     
  24 N24            0.0839     4.2214     0.0239 N.am    
  25 C25            0.1143     5.6860     0.0315 C.3     
  26 C26           -1.2958     6.2176     0.0478 C.ar    
  27 C27           -3.2623     6.9545    -1.0766 C.ar    
  28 C28           -1.9660     6.4661    -1.1399 C.ar    
  29 C29           -1.9392     6.4581     1.2473 C.ar    
  30 N30           -3.1730     6.9227     1.2695 N.ar    
  31 C31           -3.8390     7.1752     0.1596 C.ar    
  32 H32           -0.9523     1.9036     0.0169 H       
  33 H33           -0.9235    -0.5605     0.0082 H       
  34 H34            4.7841     0.5158     0.8515 H       
  35 H35            4.7685     0.5254    -0.9284 H       
  36 H36            5.9900     2.6833    -0.9276 H       
  37 H37            6.0056     2.6737     0.8523 H       
  38 H38            7.2390     0.4861     0.7816 H       
  39 H39            6.4492    -0.2392    -1.4542 H       
  40 H40            7.3569     1.0939    -2.2073 H       
  41 H41            8.2275    -0.2199    -1.3802 H       
  42 H42            8.4571     2.6351     0.9977 H       
  43 H43            9.4001     1.4586     0.0517 H       
  44 H44            8.5294     2.7724    -0.7755 H       
  45 H45            3.2553    -1.9704    -0.6999 H       
  46 H46            3.0494    -2.5803     0.9712 H       
  47 H47            2.7789    -4.8303     0.0931 H       
  48 H48            0.4907    -4.8516    -1.3228 H       
  49 H49           -0.4459    -2.6127    -1.1916 H       
  50 H50            0.9493    -1.9918    -2.1267 H       
  51 H51            2.9147    -3.3979    -2.7048 H       
  52 H52            3.1257    -6.7429    -4.1959 H       
  53 H53           -0.7659     3.7538     0.0295 H       
  54 H54            0.6440     6.0339     0.9183 H       
  55 H55            0.6270     6.0434    -0.8615 H       
  56 H56           -3.8141     7.1601    -1.9819 H       
  57 H57           -1.4897     6.2841    -2.0920 H       
  58 H58           -1.4256     6.2628     2.1771 H       
  59 H59           -4.8481     7.5558     0.2175 H       
@<TRIPOS>BOND
   1    1    2 ar
   2    1    6 ar
   3    1   32 1
   4    2    3 ar
   5    2   33 1
   6    3    4 ar
   7    3    7 1
   8    4    5 ar
   9    5    6 ar
  10    5    8 1
  11    6   14 1
  12    7   16 1
  13    7   19 1
  14    8    9 1
  15    9   10 1
  16    9   34 1
  17    9   35 1
  18   10   11 1
  19   10   36 1
  20   10   37 1
  21   11   12 1
  22   11   13 1
  23   11   38 1
  24   12   39 1
  25   12   40 1
  26   12   41 1
  27   13   42 1
  28   13   43 1
  29   13   44 1
  30   14   15 2
  31   14   24 am
  32   16   17 1
  33   16   45 1
  34   16   46 1
  35   17   18 1
  36   17   20 1
  37   17   47 1
  38   18   19 1
  39   18   20 1
  40   18   48 1
  41   19   49 1
  42   19   50 1
  43   20   21 1
  44   20   51 1
  45   21   22 2
  46   21   23 1
  47   23   52 1
  48   24   25 1
  49   24   53 1
  50   25   26 1
  51   25   54 1
  52   25   55 1
  53   26   29 ar
  54   26   28 ar
  55   27   28 ar
  56   27   31 ar
  57   27   56 1
  58   28   57 1
  59   29   30 ar
  60   29   58 1
  61   30   31 ar
  62   31   59 1

#	End of record

