#	Name: ASD04590635
#	Creating user name:	WinNT
#	Creation time:	15. 06. 2019 20:51

#	Modifying user name:	WinNT
#	Modification time:	15. 06. 2019 20:51

#	Program:	/corina/corina34_cracker 3.40 0067  02.08.2006

@<TRIPOS>MOLECULE
ASD04590635
  62   67    0    0    0
SMALL
NO_CHARGES


@<TRIPOS>ATOM
   1 N1            -0.0030     1.2918     0.0849 N.ar    
   2 C2             0.0103    -0.0350     0.0844 C.ar    
   3 N3             1.1357    -0.7309     0.0855 N.ar    
   4 C4             2.3134    -0.1136     0.0867 C.ar    
   5 C5             2.3330     1.2958     0.0867 C.ar    
   6 C6             1.1241     1.9843     0.0860 C.ar    
   7 N7             3.6098    -0.5654     0.0879 N.pl3   
   8 C8             4.4934     0.5001     0.0887 C.ar    
   9 C9             3.7470     1.6921     0.0880 C.ar    
  10 C10            5.8795     0.5869     0.0901 C.ar    
  11 N11            6.4775     1.7607     0.0906 N.ar    
  12 C12            5.8058     2.8986     0.0900 C.ar    
  13 C13            4.4271     2.9093     0.0891 C.ar    
  14 N14           -1.1961    -0.7154     0.0833 N.pl3   
  15 C15           -2.3946    -0.0103     0.1916 C.ar    
  16 C16            4.0028    -1.9767     0.0887 C.3     
  17 C17            3.3860    -2.6963     1.3059 C.3     
  18 C18            3.4494    -2.6787    -1.1638 C.3     
  19 C19            2.5156    -3.8003    -0.6640 C.3     
  20 C20            2.0896    -3.3375     0.7514 C.3     
  21 N21           -2.3682     1.2973     0.3928 N.ar    
  22 C22           -3.4768     2.0047     0.5015 C.ar    
  23 C23           -4.7189     1.3951     0.4080 C.ar    
  24 C24           -4.7863     0.0188     0.1962 C.ar    
  25 C25           -3.6036    -0.6885     0.0813 C.ar    
  26 N26           -5.8905     2.1523     0.5253 N.3     
  27 C27           -6.7537     1.6250     1.5906 C.3     
  28 C28           -8.0968     2.3624     1.5672 C.3     
  29 C29           -5.5805     3.5714     0.7440 C.3     
  30 C30           -6.8756     4.3886     0.6859 C.3     
  31 N31           -7.8371     3.8085     1.6357 N.am    
  32 C32           -8.4640     4.5816     2.5445 C.2     
  33 O33           -9.3165     4.1035     3.2624 O.2     
  34 C34           -8.1055     6.0401     2.6684 C.3     
  35 H35            1.1061     3.0641     0.0856 H       
  36 H36            6.4723    -0.3159     0.0910 H       
  37 H37            6.3449     3.8345     0.0909 H       
  38 H38            3.8842     3.8429     0.0882 H       
  39 H39           -1.2075    -1.6824     0.0071 H       
  40 H40            5.0891    -2.0615     0.1149 H       
  41 H41            4.0630    -3.4653     1.6778 H       
  42 H42            3.1508    -1.9804     2.0935 H       
  43 H43            2.8884    -1.9693    -1.7722 H       
  44 H44            4.2671    -3.1049    -1.7450 H       
  45 H45            1.6453    -3.8901    -1.3141 H       
  46 H46            3.0521    -4.7477    -0.6102 H       
  47 H47            1.7880    -4.1887     1.3617 H       
  48 H48            1.2889    -2.6003     0.6920 H       
  49 H49           -3.4162     3.0704     0.6655 H       
  50 H50           -5.7398    -0.4825     0.1193 H       
  51 H51           -3.6186    -1.7558    -0.0835 H       
  52 H52           -6.9206     0.5600     1.4298 H       
  53 H53           -6.2725     1.7764     2.5569 H       
  54 H54           -8.6266     2.1289     0.6437 H       
  55 H55           -8.6971     2.0572     2.4243 H       
  56 H56           -5.1157     3.6956     1.7221 H       
  57 H57           -4.8967     3.9180    -0.0308 H       
  58 H58           -6.6685     5.4230     0.9603 H       
  59 H59           -7.2880     4.3499    -0.3223 H       
  60 H60           -7.3975     6.3082     1.8843 H       
  61 H61           -9.0063     6.6455     2.5671 H       
  62 H62           -7.6536     6.2216     3.6436 H       
@<TRIPOS>BOND
   1    1    2 ar
   2    1    6 ar
   3    2    3 ar
   4    2   14 1
   5    3    4 ar
   6    4    5 ar
   7    4    7 1
   8    5    6 ar
   9    5    9 1
  10    6   35 1
  11    7    8 1
  12    7   16 1
  13    8    9 ar
  14    8   10 ar
  15    9   13 ar
  16   10   11 ar
  17   10   36 1
  18   11   12 ar
  19   12   13 ar
  20   12   37 1
  21   13   38 1
  22   14   15 1
  23   14   39 1
  24   15   21 ar
  25   15   25 ar
  26   16   18 1
  27   16   17 1
  28   16   40 1
  29   17   20 1
  30   17   41 1
  31   17   42 1
  32   18   19 1
  33   18   43 1
  34   18   44 1
  35   19   20 1
  36   19   45 1
  37   19   46 1
  38   20   47 1
  39   20   48 1
  40   21   22 ar
  41   22   23 ar
  42   22   49 1
  43   23   24 ar
  44   23   26 1
  45   24   25 ar
  46   24   50 1
  47   25   51 1
  48   26   29 1
  49   26   27 1
  50   27   28 1
  51   27   52 1
  52   27   53 1
  53   28   31 1
  54   28   54 1
  55   28   55 1
  56   29   30 1
  57   29   56 1
  58   29   57 1
  59   30   31 1
  60   30   58 1
  61   30   59 1
  62   31   32 am
  63   32   33 2
  64   32   34 1
  65   34   60 1
  66   34   61 1
  67   34   62 1

#	End of record

