#	Name: ASD05313252
#	Creating user name:	WinNT
#	Creation time:	15. 06. 2019 20:59

#	Modifying user name:	WinNT
#	Modification time:	15. 06. 2019 20:59

#	Program:	/corina/corina34_cracker 3.40 0067  02.08.2006

@<TRIPOS>MOLECULE
ASD05313252
  30   32    0    0    0
SMALL
NO_CHARGES


@<TRIPOS>ATOM
   1 C1            -0.0739     0.8196     1.0241 C.2     
   2 C2             0.1127    -0.6187     0.5961 C.3     
   3 N3             0.9285     1.7318     1.0504 N.pl3   
   4 N4             1.4554    -0.7199    -0.0049 N.am    
   5 C5             2.5695    -0.0393     0.6725 C.3     
   6 C6             2.3164     1.4724     0.6624 C.3     
   7 N7            -1.1706     1.3910     1.4235 N.2     
   8 C8            -0.9158     2.6763     1.7198 C.2     
   9 C9             0.3948     2.9062     1.4939 C.2     
  10 C10            1.6559    -1.4160    -1.1414 C.2     
  11 O11            2.7481    -1.4066    -1.6753 O.2     
  12 C12            0.5487    -2.1904    -1.7383 C.ar    
  13 C13            0.3183    -2.1379    -3.1159 C.ar    
  14 C14           -0.7184    -2.8642    -3.6669 C.ar    
  15 C15           -1.5281    -3.6430    -2.8576 C.ar    
  16 C16           -1.3041    -3.6986    -1.4917 C.ar    
  17 C17           -0.2686    -2.9826    -0.9296 C.ar    
  18 Cl18          -2.8301    -4.5531    -3.5577 Cl      
  19 Cl19           1.3327    -1.1613    -4.1313 Cl      
  20 Cl20           1.2390     4.4051     1.7272 Cl      
  21 H21            0.0427    -1.2764     1.4625 H       
  22 H22           -0.6451    -0.8890    -0.1392 H       
  23 H23            2.6385    -0.3900     1.7022 H       
  24 H24            3.5009    -0.2562     0.1495 H       
  25 H25            2.4937     1.8641    -0.3392 H       
  26 H26            2.9890     1.9590     1.3687 H       
  27 H27           -1.6338     3.3989     2.0787 H       
  28 H28           -0.8983    -2.8246    -4.7311 H       
  29 H29           -1.9394    -4.3081    -0.8661 H       
  30 H30           -0.0925    -3.0310     0.1349 H       
@<TRIPOS>BOND
   1    1    2 1
   2    1    3 1
   3    1    7 2
   4    2    4 1
   5    2   21 1
   6    2   22 1
   7    3    6 1
   8    3    9 1
   9    4    5 1
  10    4   10 am
  11    5    6 1
  12    5   23 1
  13    5   24 1
  14    6   25 1
  15    6   26 1
  16    7    8 1
  17    8    9 2
  18    8   27 1
  19    9   20 1
  20   10   11 2
  21   10   12 1
  22   12   13 ar
  23   12   17 ar
  24   13   14 ar
  25   13   19 1
  26   14   15 ar
  27   14   28 1
  28   15   16 ar
  29   15   18 1
  30   16   17 ar
  31   16   29 1
  32   17   30 1

#	End of record

