#	Name: ASD00111112
#	Creating user name:	WinNT
#	Creation time:	15. 06. 2019 18:30

#	Modifying user name:	WinNT
#	Modification time:	15. 06. 2019 18:30

#	Program:	/corina/corina34_cracker 3.40 0067  02.08.2006

@<TRIPOS>MOLECULE
ASD00111112
  43   44    0    0    0
SMALL
NO_CHARGES


@<TRIPOS>ATOM
   1 N1            -0.0128     1.2279    -0.2796 N.am    
   2 C2             0.3154    -0.2055    -0.3481 C.3     
   3 C3             0.9297    -0.6010     0.9930 C.3     
   4 C4             2.4119    -0.3330     1.0481 C.ar    
   5 C5             3.0475     0.6784     0.3632 C.ar    
   6 C6             2.3351     1.5761    -0.6099 C.3     
   7 C7             1.0664     2.1738     0.0034 C.3     
   8 C8             4.4102     0.8835     0.5376 C.ar    
   9 C9             5.1504     0.0529     1.3600 C.ar    
  10 C10            4.5189    -0.9935     2.0180 C.ar    
  11 C11            3.1627    -1.1780     1.8625 C.ar    
  12 C12            0.7599     3.5278    -0.6398 C.3     
  13 C13            0.2413     0.1914     2.1061 C.3     
  14 Br14           5.5158    -2.1607     3.1224 Br      
  15 O15            6.4839     0.2599     1.5225 O.3     
  16 C16            7.0613     1.3574     0.8125 C.3     
  17 C17            8.5362     1.4300     1.1132 C.2     
  18 C18            9.3943     1.6190     0.1416 C.2     
  19 C19           -1.2746     1.6581    -0.4781 C.2     
  20 O20           -1.5464     2.8304    -0.3267 O.2     
  21 C21           -2.3476     0.6827    -0.8882 C.3     
  22 F22           -3.5632     1.3600    -1.0322 F       
  23 F23           -1.9975     0.0890    -2.1057 F       
  24 F24           -2.4782    -0.3064     0.0924 F       
  25 H25           -0.5909    -0.7847    -0.5252 H       
  26 H26            1.0318    -0.3833    -1.1502 H       
  27 H27            0.7569    -1.6641     1.1605 H       
  28 H28            3.0040     2.3851    -0.9035 H       
  29 H29            2.0655     0.9996    -1.4947 H       
  30 H30            1.1899     2.2892     1.0802 H       
  31 H31            4.8973     1.7001     0.0254 H       
  32 H32            2.6738    -1.9901     2.3802 H       
  33 H33           -0.0540     4.0109    -0.0992 H       
  34 H34            1.6479     4.1587    -0.5991 H       
  35 H35            0.4675     3.3785    -1.6792 H       
  36 H36           -0.8383     0.0631     2.0292 H       
  37 H37            0.5823    -0.1724     3.0754 H       
  38 H38            0.4897     1.2481     2.0068 H       
  39 H39            6.9155     1.2144    -0.2582 H       
  40 H40            6.5809     2.2848     1.1240 H       
  41 H41            8.8858     1.3263     2.1298 H       
  42 H42           10.4513     1.6711     0.3571 H       
  43 H43            9.0447     1.7227    -0.8750 H       
@<TRIPOS>BOND
   1    1    2 1
   2    1    7 1
   3    1   19 am
   4    2    3 1
   5    2   25 1
   6    2   26 1
   7    3    4 1
   8    3   13 1
   9    3   27 1
  10    4    5 ar
  11    4   11 ar
  12    5    6 1
  13    5    8 ar
  14    6    7 1
  15    6   28 1
  16    6   29 1
  17    7   12 1
  18    7   30 1
  19    8    9 ar
  20    8   31 1
  21    9   10 ar
  22    9   15 1
  23   10   11 ar
  24   10   14 1
  25   11   32 1
  26   12   33 1
  27   12   34 1
  28   12   35 1
  29   13   36 1
  30   13   37 1
  31   13   38 1
  32   15   16 1
  33   16   17 1
  34   16   39 1
  35   16   40 1
  36   17   18 2
  37   17   41 1
  38   18   42 1
  39   18   43 1
  40   19   20 2
  41   19   21 1
  42   21   22 1
  43   21   23 1
  44   21   24 1

#	End of record

