#	Name: ASD01815646
#	Creating user name:	WinNT
#	Creation time:	15. 06. 2019 19:33

#	Modifying user name:	WinNT
#	Modification time:	15. 06. 2019 19:33

#	Program:	/corina/corina34_cracker 3.40 0067  02.08.2006

@<TRIPOS>MOLECULE
ASD01815646
  47   50    0    0    0
SMALL
NO_CHARGES


@<TRIPOS>ATOM
   1 C1            -0.0167     1.3832     0.0096 C.ar    
   2 C2             0.0021    -0.0041     0.0020 C.ar    
   3 C3             1.1959    -0.6919    -0.0126 C.ar    
   4 C4             2.4007     0.0059    -0.0204 C.ar    
   5 C5             2.3789     1.4111    -0.0132 C.ar    
   6 C6             1.1632     2.0941     0.0022 C.ar    
   7 N7             3.6013    -0.6705    -0.0346 N.pl3   
   8 C8             4.7860    -0.0462    -0.0417 C.2     
   9 C9             4.8924     1.3300    -0.0353 C.2     
  10 C10            3.6622     2.1381    -0.0216 C.2     
  11 O11            3.7023     3.3559    -0.0158 O.2     
  12 C12            6.2118     1.9776    -0.0420 C.2     
  13 O13            7.2212     1.3003    -0.0533 O.2     
  14 O14            6.3025     3.3226    -0.0357 O.3     
  15 C15            3.5807    -2.1353    -0.0418 C.3     
  16 C16            3.5609    -2.6305    -1.4650 C.ar    
  17 C17            4.7306    -3.3286    -3.4340 C.ar    
  18 C18            3.5245    -3.5394    -4.0757 C.ar    
  19 C19            2.3367    -3.2896    -3.4142 C.ar    
  20 C20            2.3549    -2.8354    -2.1087 C.ar    
  21 C21            4.7488    -2.8743    -2.1285 C.ar    
  22 C22            3.5046    -4.0346    -5.4989 C.3     
  23 C23            3.4841    -5.5414    -5.5062 C.ar    
  24 C24            2.2772    -6.2158    -5.4986 C.ar    
  25 C25            4.6720    -6.2483    -5.5264 C.ar    
  26 C26            4.6543    -7.6302    -5.5340 C.ar    
  27 C27            3.4463    -8.3066    -5.5211 C.ar    
  28 C28            2.2571    -7.5976    -5.5057 C.ar    
  29 F29            3.4278    -9.6575    -5.5285 F       
  30 H30           -0.9606     1.9081     0.0170 H       
  31 H31           -0.9293    -0.5508     0.0080 H       
  32 H32            1.1970    -1.7719    -0.0177 H       
  33 H33            1.1468     3.1740     0.0074 H       
  34 H34            5.6885    -0.6393    -0.0524 H       
  35 H35            7.1917     3.7026    -0.0405 H       
  36 H36            4.4701    -2.5136     0.4622 H       
  37 H37            2.6904    -2.4887     0.4783 H       
  38 H38            5.6586    -3.5238    -3.9508 H       
  39 H39            1.3944    -3.4543    -3.9155 H       
  40 H40            1.4269    -2.6410    -1.5916 H       
  41 H41            5.6911    -2.7097    -1.6272 H       
  42 H42            2.6151    -3.6566    -6.0027 H       
  43 H43            4.3948    -3.6809    -6.0191 H       
  44 H44            1.3498    -5.6625    -5.4866 H       
  45 H45            5.6141    -5.7204    -5.5365 H       
  46 H46            5.5824    -8.1822    -5.5505 H       
  47 H47            1.3143    -8.1242    -5.4952 H       
@<TRIPOS>BOND
   1    1    2 ar
   2    1    6 ar
   3    1   30 1
   4    2    3 ar
   5    2   31 1
   6    3    4 ar
   7    3   32 1
   8    4    5 ar
   9    4    7 1
  10    5    6 ar
  11    5   10 1
  12    6   33 1
  13    7    8 1
  14    7   15 1
  15    8    9 2
  16    8   34 1
  17    9   10 1
  18    9   12 1
  19   10   11 2
  20   12   13 2
  21   12   14 1
  22   14   35 1
  23   15   16 1
  24   15   36 1
  25   15   37 1
  26   16   21 ar
  27   16   20 ar
  28   17   18 ar
  29   17   21 ar
  30   17   38 1
  31   18   19 ar
  32   18   22 1
  33   19   20 ar
  34   19   39 1
  35   20   40 1
  36   21   41 1
  37   22   23 1
  38   22   42 1
  39   22   43 1
  40   23   24 ar
  41   23   25 ar
  42   24   28 ar
  43   24   44 1
  44   25   26 ar
  45   25   45 1
  46   26   27 ar
  47   26   46 1
  48   27   28 ar
  49   27   29 1
  50   28   47 1

#	End of record

