#	Name: ASD01816480
#	Creating user name:	WinNT
#	Creation time:	15. 06. 2019 19:35

#	Modifying user name:	WinNT
#	Modification time:	15. 06. 2019 19:35

#	Program:	/corina/corina34_cracker 3.40 0067  02.08.2006

@<TRIPOS>MOLECULE
ASD01816480
  62   68    0    0    0
SMALL
NO_CHARGES


@<TRIPOS>ATOM
   1 C1            -0.0329     1.4236    -0.0341 C.ar    
   2 C2            -0.0227     0.0382    -0.0497 C.ar    
   3 C3             1.1694    -0.6559    -0.0638 C.ar    
   4 C4             2.3768     0.0334    -0.0624 C.ar    
   5 C5             2.3630     1.4382    -0.0466 C.ar    
   6 C6             1.1544     2.1266    -0.0325 C.ar    
   7 N7             3.5764    -0.6570    -0.0760 N.pl3   
   8 C8             4.7720    -0.0457    -0.0755 C.2     
   9 C9             4.8833     1.3224    -0.0607 C.2     
  10 C10            3.6554     2.1497    -0.0455 C.2     
  11 C11            5.9864     2.2783    -0.0559 C.2     
  12 N12            5.4214     3.5048    -0.0397 N.am    
  13 N13            4.0284     3.3972    -0.0338 N.2     
  14 C14            6.1272     4.7065    -0.0301 C.ar    
  15 O15            7.1790     2.0210    -0.0644 O.2     
  16 C16            3.5400    -2.1215    -0.0913 C.3     
  17 C17            3.5200    -2.6087    -1.5172 C.ar    
  18 C18            4.7088    -2.8615    -2.1767 C.ar    
  19 C19            4.6937    -3.3076    -3.4838 C.ar    
  20 C20            3.4832    -3.5027    -4.1353 C.ar    
  21 C21            2.2913    -3.2484    -3.4703 C.ar    
  22 C22            2.3127    -2.8074    -2.1616 C.ar    
  23 N23            3.4647    -3.9550    -5.4620 N.pl3   
  24 C24            2.3612    -4.1850    -6.2091 C.2     
  25 C25            2.7698    -4.6099    -7.4271 C.2     
  26 C26            4.1687    -4.6409    -7.4256 C.2     
  27 N27            4.5861    -4.2429    -6.2507 N.2     
  28 C28            7.0691     4.9701    -1.0153 C.ar    
  29 C29            7.7667     6.1615    -1.0042 C.ar    
  30 C30            7.5339     7.1011    -0.0133 C.ar    
  31 C31            6.6027     6.8564     0.9733 C.ar    
  32 C32            5.8851     5.6585     0.9720 C.ar    
  33 C33            4.8868     5.3905     2.0246 C.2     
  34 O34            4.6022     4.2446     2.3150 O.2     
  35 N35            4.2901     6.4158     2.6642 N.am    
  36 C36            3.2266     6.5617     3.6695 C.3     
  37 C37            2.9430     7.9539     3.0885 C.3     
  38 C38            4.4204     7.8807     2.6689 C.3     
  39 H39           -0.9732     1.9549    -0.0276 H       
  40 H40           -0.9570    -0.5035    -0.0505 H       
  41 H41            1.1647    -1.7359    -0.0755 H       
  42 H42            1.1454     3.2065    -0.0207 H       
  43 H43            5.6695    -0.6462    -0.0866 H       
  44 H44            4.4233    -2.5122     0.4138 H       
  45 H45            2.6439    -2.4680     0.4237 H       
  46 H46            5.6500    -2.7095    -1.6694 H       
  47 H47            5.6225    -3.5042    -3.9986 H       
  48 H48            1.3482    -3.3989    -3.9747 H       
  49 H49            1.3859    -2.6095    -1.6438 H       
  50 H50            1.3376    -4.0539    -5.8905 H       
  51 H51            2.1293    -4.8778    -8.2544 H       
  52 H52            4.7961    -4.9377    -8.2530 H       
  53 H53            7.2565     4.2424    -1.7910 H       
  54 H54            8.4988     6.3619    -1.7725 H       
  55 H55            8.0850     8.0300    -0.0135 H       
  56 H56            6.4256     7.5920     1.7439 H       
  57 H57            2.4036     5.8597     3.5358 H       
  58 H58            3.5981     6.5864     4.6940 H       
  59 H59            2.2383     7.9561     2.2569 H       
  60 H60            2.7307     8.7162     3.8381 H       
  61 H61            5.1064     8.2565     3.4280 H       
  62 H62            4.6124     8.3005     1.6815 H       
@<TRIPOS>BOND
   1    1    2 ar
   2    1    6 ar
   3    1   39 1
   4    2    3 ar
   5    2   40 1
   6    3    4 ar
   7    3   41 1
   8    4    5 ar
   9    4    7 1
  10    5    6 ar
  11    5   10 1
  12    6   42 1
  13    7    8 1
  14    7   16 1
  15    8    9 2
  16    8   43 1
  17    9   10 1
  18    9   11 1
  19   10   13 2
  20   11   12 am
  21   11   15 2
  22   12   13 1
  23   12   14 1
  24   14   28 ar
  25   14   32 ar
  26   16   17 1
  27   16   44 1
  28   16   45 1
  29   17   18 ar
  30   17   22 ar
  31   18   19 ar
  32   18   46 1
  33   19   20 ar
  34   19   47 1
  35   20   21 ar
  36   20   23 1
  37   21   22 ar
  38   21   48 1
  39   22   49 1
  40   23   24 1
  41   23   27 1
  42   24   25 2
  43   24   50 1
  44   25   26 1
  45   25   51 1
  46   26   27 2
  47   26   52 1
  48   28   29 ar
  49   28   53 1
  50   29   30 ar
  51   29   54 1
  52   30   31 ar
  53   30   55 1
  54   31   32 ar
  55   31   56 1
  56   32   33 1
  57   33   34 2
  58   33   35 am
  59   35   36 1
  60   35   38 1
  61   36   37 1
  62   36   57 1
  63   36   58 1
  64   37   38 1
  65   37   59 1
  66   37   60 1
  67   38   61 1
  68   38   62 1

#	End of record

