#	Name: ASD01881645
#	Creating user name:	WinNT
#	Creation time:	15. 06. 2019 19:43

#	Modifying user name:	WinNT
#	Modification time:	15. 06. 2019 19:43

#	Program:	/corina/corina34_cracker 3.40 0067  02.08.2006

@<TRIPOS>MOLECULE
ASD01881645
  44   46    0    0    0
SMALL
NO_CHARGES


@<TRIPOS>ATOM
   1 C1            -0.0168     1.3872     0.0097 C.ar    
   2 C2             0.0021    -0.0041     0.0020 C.ar    
   3 C3             1.2195    -0.6601    -0.0132 C.ar    
   4 C4             2.3819     0.0999    -0.0202 C.ar    
   5 C5             2.2894     1.4770    -0.0120 C.ar    
   6 N6             1.1137     2.0763     0.0026 N.ar    
   7 N7            -1.2334     2.0595     0.0191 N.pl3   
   8 C8             3.7306    -0.5722    -0.0363 C.3     
   9 O9             4.1443    -0.7778    -1.3886 O.3     
  10 N10            8.9566    -3.1750    -2.4370 N.pl3   
  11 N11            8.8534    -3.1238    -3.8351 N.2     
  12 N12            7.7397    -2.5693    -4.1621 N.2     
  13 C13            7.0465    -2.2239    -3.0588 C.ar    
  14 C14            7.8079    -2.6030    -1.9397 C.ar    
  15 C15            5.8043    -1.6045    -2.8636 C.ar    
  16 C16            5.3492    -1.3782    -1.5811 C.ar    
  17 C17            6.1149    -1.7597    -0.4820 C.ar    
  18 C18            7.3283    -2.3632    -0.6569 C.ar    
  19 C19           10.0657    -3.7333    -1.6596 C.3     
  20 C20           11.1005    -2.6392    -1.3892 C.3     
  21 C21           10.4466    -1.5024    -0.6011 C.3     
  22 C22           12.2588    -3.2222    -0.5772 C.3     
  23 C23           11.6307    -2.0988    -2.7187 C.3     
  24 Br24           4.7579    -1.0829    -4.3498 Br      
  25 H25           -0.9214    -0.5640     0.0082 H       
  26 H26            1.2652    -1.7391    -0.0191 H       
  27 H27            3.1908     2.0718    -0.0174 H       
  28 H28           -2.0642     1.5589     0.0203 H       
  29 H29           -1.2515     3.0293     0.0244 H       
  30 H30            4.4576     0.0597     0.4740 H       
  31 H31            3.6637    -1.5334     0.4734 H       
  32 H32            5.7470    -1.5763     0.5167 H       
  33 H33            7.9147    -2.6551     0.2018 H       
  34 H34            9.6879    -4.1182    -0.7124 H       
  35 H35           10.5315    -4.5431    -2.2211 H       
  36 H36           10.0688    -1.8874     0.3461 H       
  37 H37           11.1838    -0.7229    -0.4084 H       
  38 H38            9.6214    -1.0870    -1.1795 H       
  39 H39           12.7246    -4.0321    -1.1387 H       
  40 H40           12.9960    -2.4427    -0.3846 H       
  41 H41           11.8810    -3.6072     0.3700 H       
  42 H42           10.8055    -1.6835    -3.2971 H       
  43 H43           12.3679    -1.3194    -2.5260 H       
  44 H44           12.0966    -2.9087    -3.2802 H       
@<TRIPOS>BOND
   1    1    2 ar
   2    1    6 ar
   3    1    7 1
   4    2    3 ar
   5    2   25 1
   6    3    4 ar
   7    3   26 1
   8    4    5 ar
   9    4    8 1
  10    5    6 ar
  11    5   27 1
  12    7   28 1
  13    7   29 1
  14    8    9 1
  15    8   30 1
  16    8   31 1
  17    9   16 1
  18   10   11 1
  19   10   14 1
  20   10   19 1
  21   11   12 2
  22   12   13 1
  23   13   14 ar
  24   13   15 ar
  25   14   18 ar
  26   15   16 ar
  27   15   24 1
  28   16   17 ar
  29   17   18 ar
  30   17   32 1
  31   18   33 1
  32   19   20 1
  33   19   34 1
  34   19   35 1
  35   20   21 1
  36   20   22 1
  37   20   23 1
  38   21   36 1
  39   21   37 1
  40   21   38 1
  41   22   39 1
  42   22   40 1
  43   22   41 1
  44   23   42 1
  45   23   43 1
  46   23   44 1

#	End of record

