#	Name: ASD00960172
#	Creating user name:	WinNT
#	Creation time:	15. 06. 2019 18:53

#	Modifying user name:	WinNT
#	Modification time:	15. 06. 2019 18:53

#	Program:	/corina/corina34_cracker 3.40 0067  02.08.2006

@<TRIPOS>MOLECULE
ASD00960172
  51   53    0    0    0
SMALL
NO_CHARGES


@<TRIPOS>ATOM
   1 O1            -0.0173     1.4248     0.0099 O.3     
   2 O2            -2.3899     0.5001     0.0276 O.3     
   3 C3             0.0021    -0.0041     0.0020 C.3     
   4 C4            -1.4375    -0.5651     0.0127 C.3     
   5 C5            -1.5390    -1.3636    -1.3057 C.3     
   6 O6            -0.1754    -1.7075    -1.6348 O.3     
   7 C7             0.6000    -0.5300    -1.3217 C.3     
   8 C8             2.0731    -0.8974    -1.1319 C.3     
   9 C9            -2.3600    -2.6108    -1.1018 C.2     
  10 C10           -3.7156    -2.6822    -1.1703 C.2     
  11 N11           -1.8677    -3.8333    -0.8285 N.pl3   
  12 C12           -2.9243    -4.7159    -0.7112 C.2     
  13 C13           -4.0890    -4.0043    -0.9237 C.2     
  14 N14           -0.5668    -4.3271    -0.6565 N.2     
  15 C15           -0.3772    -5.5905    -0.3927 C.2     
  16 N16           -1.3858    -6.4527    -0.2767 N.2     
  17 C17           -2.6439    -6.0714    -0.4231 C.2     
  18 O18            2.6177    -1.3406    -2.3765 O.3     
  19 N19           -3.6702    -6.9858    -0.2976 N.pl3   
  20 C20           -1.6454    -1.4851     1.2175 C.3     
  21 P21            4.1488    -1.8083    -2.5467 P.3     
  22 O22            5.1252    -0.5555    -2.2835 O.3     
  23 O23            4.4484    -2.8806    -1.5716 O.2     
  24 O24            4.3777    -2.3624    -4.0409 O.3     
  25 P25            5.4818    -3.3148    -4.7237 P.3     
  26 O26            5.4780    -3.0841    -6.3171 O.3     
  27 P27            6.4954    -3.4663    -7.5049 P.3     
  28 O28            7.7699    -2.4837    -7.4568 O.3     
  29 O29            6.9452    -4.8663    -7.3378 O.2     
  30 O30            5.7489    -3.3080    -8.9226 O.3     
  31 O31            6.8192    -2.9874    -4.1810 O.2     
  32 O32            5.1347    -4.8540    -4.4034 O.3     
  33 H33            0.8606     1.8301     0.0037 H       
  34 H34           -2.3300     1.0705     0.8061 H       
  35 H35            0.5657    -0.3821     0.8550 H       
  36 H36           -1.9746    -0.7458    -2.0910 H       
  37 H37            0.4925     0.2157    -2.1094 H       
  38 H38            2.6238    -0.0230    -0.7851 H       
  39 H39            2.1564    -1.6954    -0.3941 H       
  40 H40           -4.3855    -1.8610    -1.3787 H       
  41 H41           -5.0953    -4.3956    -0.9024 H       
  42 H42            0.6330    -5.9500    -0.2642 H       
  43 H43           -3.4710    -7.9145    -0.1008 H       
  44 H44           -4.5907    -6.6997    -0.4061 H       
  45 H45           -1.5027    -0.9174     2.1370 H       
  46 H46           -2.6567    -1.8911     1.1943 H       
  47 H47           -0.9249    -2.3021     1.1793 H       
  48 H48            4.9846     0.1864    -2.8876 H       
  49 H49            7.5492    -1.5479    -7.5602 H       
  50 H50            6.3035    -3.5225    -9.6852 H       
  51 H51            4.2706    -5.1387    -4.7309 H       
@<TRIPOS>BOND
   1    1    3 1
   2    1   33 1
   3    2    4 1
   4    2   34 1
   5    3    4 1
   6    3    7 1
   7    3   35 1
   8    4   20 1
   9    4    5 1
  10    5    6 1
  11    5    9 1
  12    5   36 1
  13    6    7 1
  14    7    8 1
  15    7   37 1
  16    8   18 1
  17    8   38 1
  18    8   39 1
  19    9   10 2
  20    9   11 1
  21   10   13 1
  22   10   40 1
  23   11   12 1
  24   11   14 1
  25   12   13 2
  26   12   17 1
  27   13   41 1
  28   14   15 2
  29   15   16 1
  30   15   42 1
  31   16   17 2
  32   17   19 1
  33   18   21 1
  34   19   43 1
  35   19   44 1
  36   20   45 1
  37   20   46 1
  38   20   47 1
  39   21   22 1
  40   21   23 2
  41   21   24 1
  42   22   48 1
  43   24   25 1
  44   25   26 1
  45   25   31 2
  46   25   32 1
  47   26   27 1
  48   27   28 1
  49   27   29 2
  50   27   30 1
  51   28   49 1
  52   30   50 1
  53   32   51 1

#	End of record

