#	Name: ASD03740003
#	Creating user name:	WinNT
#	Creation time:	15. 06. 2019 20:46

#	Modifying user name:	WinNT
#	Modification time:	15. 06. 2019 20:46

#	Program:	/corina/corina34_cracker 3.40 0067  02.08.2006

@<TRIPOS>MOLECULE
ASD03740003
  33   34    0    0    0
SMALL
NO_CHARGES


@<TRIPOS>ATOM
   1 C1            -0.0821     1.5196     0.0629 C.3     
   2 C2             0.0188    -0.0058    -0.0125 C.3     
   3 C3             0.7868    -0.5162     1.1790 C.2     
   4 C4             1.7857     0.2860     1.7837 C.2     
   5 C5             2.0763     1.5780     1.2803 C.2     
   6 C6             1.3267     2.1173     0.0899 C.3     
   7 O7             2.9335     2.2541     1.8111 O.2     
   8 O8             0.5480    -1.6203     1.6235 O.2     
   9 C9             2.4867    -0.1987     2.8811 C.2     
  10 N10            3.5453     0.4820     3.3575 N.pl3   
  11 C11            4.1717     0.0652     4.5369 C.ar    
  12 C12            5.2644     0.7676     5.0291 C.ar    
  13 C13            5.8817     0.3558     6.1933 C.ar    
  14 C14            5.4113    -0.7595     6.8714 C.ar    
  15 C15            4.3202    -1.4619     6.3803 C.ar    
  16 C16            3.6979    -1.0479     5.2195 C.ar    
  17 O17            6.0201    -1.1645     8.0176 O.3     
  18 C18            5.4833    -2.3205     8.6637 C.3     
  19 H19           -0.6190     1.8924    -0.8094 H       
  20 H20           -0.6160     1.8048     0.9693 H       
  21 H21           -0.9824    -0.4369    -0.0114 H       
  22 H22            0.5367    -0.2912    -0.9281 H       
  23 H23            1.8543     1.8471    -0.8248 H       
  24 H24            1.2595     3.2027     0.1640 H       
  25 H25            2.1821    -1.1219     3.3516 H       
  26 H26            3.8739     1.2617     2.8832 H       
  27 H27            5.6312     1.6353     4.5009 H       
  28 H28            6.7313     0.9018     6.5761 H       
  29 H29            3.9549    -2.3301     6.9086 H       
  30 H30            2.8483    -1.5946     4.8376 H       
  31 H31            4.4435    -2.1359     8.9338 H       
  32 H32            5.5369    -3.1730     7.9866 H       
  33 H33            6.0599    -2.5345     9.5636 H       
@<TRIPOS>BOND
   1    1    2 1
   2    1    6 1
   3    1   19 1
   4    1   20 1
   5    2    3 1
   6    2   21 1
   7    2   22 1
   8    3    4 1
   9    3    8 2
  10    4    5 1
  11    4    9 2
  12    5    6 1
  13    5    7 2
  14    6   23 1
  15    6   24 1
  16    9   10 1
  17    9   25 1
  18   10   11 1
  19   10   26 1
  20   11   12 ar
  21   11   16 ar
  22   12   13 ar
  23   12   27 1
  24   13   14 ar
  25   13   28 1
  26   14   15 ar
  27   14   17 1
  28   15   16 ar
  29   15   29 1
  30   16   30 1
  31   17   18 1
  32   18   31 1
  33   18   32 1
  34   18   33 1

#	End of record

