#	Name: ASD01320152
#	Creating user name:	WinNT
#	Creation time:	15. 06. 2019 19:16

#	Modifying user name:	WinNT
#	Modification time:	15. 06. 2019 19:16

#	Program:	/corina/corina34_cracker 3.40 0067  02.08.2006

@<TRIPOS>MOLECULE
ASD01320152
  36   39    0    0    0
SMALL
NO_CHARGES


@<TRIPOS>ATOM
   1 N1            -0.0178     1.4616     0.0101 N.pl3   
   2 C2             0.0021    -0.0041     0.0020 C.3     
   3 C3             1.4645    -0.3913    -0.0140 C.2     
   4 C4             2.2042     0.8787    -0.0143 C.ar    
   5 C5             3.5791     1.1473    -0.0260 C.ar    
   6 C6             4.0241     2.4495    -0.0232 C.ar    
   7 C7             3.1149     3.4968    -0.0089 C.ar    
   8 C8             1.7598     3.2493     0.0032 C.ar    
   9 C9             1.2837     1.9380     0.0002 C.ar    
  10 N10           -1.1277    -0.8023     3.4590 N.am    
  11 C11           -0.3094    -0.2002     2.5686 C.2     
  12 C12           -0.6653    -0.5409     1.2420 C.2     
  13 C13           -1.6838    -1.4110     1.2520 C.2     
  14 C14           -2.2950    -2.1902     0.2496 C.2     
  15 C15           -2.8315    -3.3736     0.6770 C.2     
  16 C16           -2.7254    -3.7595     2.0806 C.2     
  17 C17           -2.4055    -2.8919     3.0468 C.2     
  18 C18           -2.1853    -1.4494     2.6906 C.3     
  19 S19           -3.6507    -4.4332    -0.4678 S.o2    
  20 O20           -4.8328    -4.8849     0.1786 O.2     
  21 O21           -3.6590    -3.7486    -1.7130 O.2     
  22 O22           -2.7691    -5.6593    -0.6573 O.3     
  23 O23            1.9283    -1.5123    -0.0241 O.2     
  24 O24            0.6117     0.5379     2.8678 O.2     
  25 H25           -0.8166     2.0118     0.0170 H       
  26 H26           -0.4977    -0.3827    -0.8896 H       
  27 H27            4.2890     0.3334    -0.0367 H       
  28 H28            5.0840     2.6564    -0.0319 H       
  29 H29            3.4727     4.5158    -0.0068 H       
  30 H30            1.0627     4.0742     0.0146 H       
  31 H31           -1.0285    -0.8070     4.4239 H       
  32 H32           -2.3372    -1.8753    -0.7826 H       
  33 H33           -2.9134    -4.7883     2.3502 H       
  34 H34           -2.3069    -3.2242     4.0697 H       
  35 H35           -3.1142    -0.8863     2.7810 H       
  36 H36           -3.1299    -6.3117    -1.2731 H       
@<TRIPOS>BOND
   1    1    2 1
   2    1    9 1
   3    1   25 1
   4    2    3 1
   5    2   12 1
   6    2   26 1
   7    3    4 1
   8    3   23 2
   9    4    5 ar
  10    4    9 ar
  11    5    6 ar
  12    5   27 1
  13    6    7 ar
  14    6   28 1
  15    7    8 ar
  16    7   29 1
  17    8    9 ar
  18    8   30 1
  19   10   11 am
  20   10   18 1
  21   10   31 1
  22   11   12 1
  23   11   24 2
  24   12   13 2
  25   13   14 1
  26   13   18 1
  27   14   15 2
  28   14   32 1
  29   15   16 1
  30   15   19 1
  31   16   17 2
  32   16   33 1
  33   17   18 1
  34   17   34 1
  35   18   35 1
  36   19   20 2
  37   19   21 2
  38   19   22 1
  39   22   36 1

#	End of record

