#	Name: ASD02770041
#	Creating user name:	WinNT
#	Creation time:	15. 06. 2019 20:26

#	Modifying user name:	WinNT
#	Modification time:	15. 06. 2019 20:26

#	Program:	/corina/corina34_cracker 3.40 0067  02.08.2006

@<TRIPOS>MOLECULE
ASD02770041
  30   30    0    0    0
SMALL
NO_CHARGES


@<TRIPOS>ATOM
   1 C1            -0.0151     1.4904     0.0416 C.2     
   2 C2             0.0031    -0.0028     0.0196 C.2     
   3 O3             1.0282     2.1103     0.0304 O.2     
   4 N4            -1.1903     2.1497     0.0684 N.am    
   5 O5            -1.0403    -0.6227     0.0309 O.2     
   6 N6             1.1783    -0.6620    -0.0127 N.am    
   7 C7             1.2005    -2.0556     0.0850 C.ar    
   8 C8             2.1627    -2.7866    -0.6009 C.ar    
   9 C9             2.1820    -4.1636    -0.5017 C.ar    
  10 C10            1.2450    -4.8155     0.2794 C.ar    
  11 C11            0.2861    -4.0913     0.9634 C.ar    
  12 C12            0.2642    -2.7132     0.8728 C.ar    
  13 C13            3.1837    -2.0772    -1.4526 C.3     
  14 C14           -1.2082     3.6144     0.0900 C.3     
  15 C15           -2.6567     4.1064     0.1183 C.3     
  16 O16           -3.2730     3.7027     1.3427 O.3     
  17 H17           -2.0243     1.6543     0.0734 H       
  18 H18            2.0086    -0.1689    -0.1039 H       
  19 H19            2.9294    -4.7324    -1.0349 H       
  20 H20            1.2622    -5.8927     0.3550 H       
  21 H21           -0.4441    -4.6034     1.5724 H       
  22 H22           -0.4825    -2.1478     1.4106 H       
  23 H23            4.0586    -1.8386    -0.8480 H       
  24 H24            3.4787    -2.7230    -2.2797 H       
  25 H25            2.7522    -1.1569    -1.8463 H       
  26 H26           -0.6859     3.9711     0.9777 H       
  27 H27           -0.7119     3.9970    -0.8019 H       
  28 H28           -2.6726     5.1938     0.0448 H       
  29 H29           -3.2026     3.6774    -0.7220 H       
  30 H30           -4.1950     3.9811     1.4295 H       
@<TRIPOS>BOND
   1    1    2 1
   2    1    3 2
   3    1    4 am
   4    2    5 2
   5    2    6 am
   6    4   14 1
   7    4   17 1
   8    6    7 1
   9    6   18 1
  10    7    8 ar
  11    7   12 ar
  12    8    9 ar
  13    8   13 1
  14    9   10 ar
  15    9   19 1
  16   10   11 ar
  17   10   20 1
  18   11   12 ar
  19   11   21 1
  20   12   22 1
  21   13   23 1
  22   13   24 1
  23   13   25 1
  24   14   15 1
  25   14   26 1
  26   14   27 1
  27   15   16 1
  28   15   28 1
  29   15   29 1
  30   16   30 1

#	End of record

