#	Name: ASD02508295
#	Creating user name:	WinNT
#	Creation time:	15. 06. 2019 20:24

#	Modifying user name:	WinNT
#	Modification time:	15. 06. 2019 20:24

#	Program:	/corina/corina34_cracker 3.40 0067  02.08.2006

@<TRIPOS>MOLECULE
ASD02508295
  33   33    0    0    0
SMALL
NO_CHARGES


@<TRIPOS>ATOM
   1 C1            -0.0189     1.5396     0.0105 C.3     
   2 C2             0.0021    -0.0041     0.0020 C.3     
   3 C3            -1.1614    -0.3548     0.9691 C.3     
   4 C4            -1.0592     0.8092     1.9866 C.3     
   5 O5            -0.6859     1.9568     1.2074 O.3     
   6 C6            -2.4113     1.0436     2.6631 C.3     
   7 O7            -2.2699     2.0393     3.6783 O.3     
   8 S8            -3.5606     2.3540     4.4209 S.o2    
   9 C9             1.4132     2.0782    -0.0003 C.3     
  10 O10            1.3855     3.5027    -0.1098 O.3     
  11 S11            2.7634     4.1489    -0.1299 S.o2    
  12 C12            3.4020     3.8015    -1.7919 C.3     
  13 O13            2.5017     5.5371     0.0236 O.2     
  14 O14            3.5019     3.4300     0.8483 O.2     
  15 O15           -3.2569     3.5212     5.1723 O.2     
  16 O16           -4.5535     2.3747     3.4045 O.2     
  17 C17           -3.8068     0.9340     5.5224 C.3     
  18 H18           -0.5585     1.9069    -0.8624 H       
  19 H19           -0.1955    -0.3892    -0.9984 H       
  20 H20            0.9508    -0.3813     0.3837 H       
  21 H21           -2.1205    -0.3408     0.4512 H       
  22 H22           -0.9929    -1.3164     1.4539 H       
  23 H23           -0.2944     0.5935     2.7327 H       
  24 H24           -3.1350     1.3813     1.9213 H       
  25 H25           -2.7589     0.1133     3.1125 H       
  26 H26            1.9150     1.7945     0.9248 H       
  27 H27            1.9527     1.6589    -0.8495 H       
  28 H28            2.7363     4.2393    -2.5358 H       
  29 H29            4.3974     4.2332    -1.8963 H       
  30 H30            3.4559     2.7233    -1.9424 H       
  31 H31           -2.9577     0.8486     6.2005 H       
  32 H32           -4.7202     1.0763     6.1001 H       
  33 H33           -3.8905     0.0237     4.9287 H       
@<TRIPOS>BOND
   1    1    2 1
   2    1    9 1
   3    1    5 1
   4    1   18 1
   5    2    3 1
   6    2   19 1
   7    2   20 1
   8    3    4 1
   9    3   21 1
  10    3   22 1
  11    4    5 1
  12    4    6 1
  13    4   23 1
  14    6    7 1
  15    6   24 1
  16    6   25 1
  17    7    8 1
  18    8   15 2
  19    8   16 2
  20    8   17 1
  21    9   10 1
  22    9   26 1
  23    9   27 1
  24   10   11 1
  25   11   12 1
  26   11   13 2
  27   11   14 2
  28   12   28 1
  29   12   29 1
  30   12   30 1
  31   17   31 1
  32   17   32 1
  33   17   33 1

#	End of record

