#	Name: ASD01028679
#	Creating user name:	WinNT
#	Creation time:	15. 06. 2019 18:57

#	Modifying user name:	WinNT
#	Modification time:	15. 06. 2019 18:57

#	Program:	/corina/corina34_cracker 3.40 0067  02.08.2006

@<TRIPOS>MOLECULE
ASD01028679
  31   33    0    0    0
SMALL
NO_CHARGES


@<TRIPOS>ATOM
   1 C1            -0.0477     1.5141    -0.0145 C.2     
   2 C2            -0.0607     0.0075     0.0201 C.3     
   3 N3             2.5296    -1.9965    -4.5484 N.ar    
   4 C4             3.8285    -2.1719    -4.5654 C.ar    
   5 C5             4.6232    -1.8732    -3.4605 C.ar    
   6 C6             4.0506    -1.3835    -2.3214 C.ar    
   7 C7             2.6555    -1.1960    -2.3070 C.ar    
   8 C8             1.9965    -0.6966    -1.1724 C.ar    
   9 C9             0.6454    -0.5290    -1.1983 C.ar    
  10 C10           -0.0928    -0.8475    -2.3361 C.ar    
  11 C11            0.5136    -1.3341    -3.4532 C.ar    
  12 C12            1.9067    -1.5207    -3.4655 C.ar    
  13 F13            0.5946    -0.4381     1.1730 F       
  14 F14           -1.3837    -0.4473     0.0305 F       
  15 C15           -0.5854     3.6808     1.0993 C.ar    
  16 C16           -0.6394     2.2797     1.0918 C.ar    
  17 C17           -1.2686     1.6221     2.1589 C.ar    
  18 C18           -1.8098     2.3901     3.1749 C.ar    
  19 C19           -1.7148     3.7696     3.1081 C.ar    
  20 N20           -1.1176     4.3651     2.0933 N.ar    
  21 F21            0.0209     4.3342     0.0841 F       
  22 Br22          -2.6717     1.5628     4.6407 Br      
  23 O23            0.4554     2.0947    -0.9528 O.2     
  24 H24            4.2951    -2.5585    -5.4594 H       
  25 H25            5.6910    -2.0292    -3.5048 H       
  26 H26            4.6514    -1.1469    -1.4557 H       
  27 H27            2.5580    -0.4465    -0.2844 H       
  28 H28           -1.1635    -0.7063    -2.3315 H       
  29 H29           -0.0735    -1.5764    -4.3268 H       
  30 H30           -1.3296     0.5441     2.1868 H       
  31 H31           -2.1373     4.3693     3.9008 H       
@<TRIPOS>BOND
   1    1    2 1
   2    1   16 1
   3    1   23 2
   4    2    9 1
   5    2   13 1
   6    2   14 1
   7    3    4 ar
   8    3   12 ar
   9    4    5 ar
  10    4   24 1
  11    5    6 ar
  12    5   25 1
  13    6    7 ar
  14    6   26 1
  15    7    8 ar
  16    7   12 ar
  17    8    9 ar
  18    8   27 1
  19    9   10 ar
  20   10   11 ar
  21   10   28 1
  22   11   12 ar
  23   11   29 1
  24   15   16 ar
  25   15   20 ar
  26   15   21 1
  27   16   17 ar
  28   17   18 ar
  29   17   30 1
  30   18   19 ar
  31   18   22 1
  32   19   20 ar
  33   19   31 1

#	End of record

