#	Name: ASD08170016
#	Creating user name:	WinNT
#	Creation time:	15. 06. 2019 21:17

#	Modifying user name:	WinNT
#	Modification time:	15. 06. 2019 21:17

#	Program:	/corina/corina34_cracker 3.40 0067  02.08.2006

@<TRIPOS>MOLECULE
ASD08170016
  52   55    0    0    0
SMALL
NO_CHARGES


@<TRIPOS>ATOM
   1 C1             2.6298     5.4865     0.9851 C.ar    
   2 C2             3.7284     6.1891     0.5743 C.ar    
   3 C3             4.7886     5.5394    -0.0420 C.ar    
   4 C4             4.7551     4.1777    -0.2494 C.ar    
   5 C5             3.6469     3.4411     0.1622 C.ar    
   6 C6             2.5754     4.1070     0.7825 C.ar    
   7 N7             3.6036     2.0763    -0.0337 N.pl3   
   8 C8             2.4286     1.3634     0.0845 C.ar    
   9 C9             1.3038     1.9393     0.7007 C.ar    
  10 C10            1.4006     3.3218     1.2071 C.2     
  11 C11            2.3409     0.0623    -0.4049 C.ar    
  12 C12            1.1627    -0.6403    -0.2767 C.ar    
  13 C13            0.0581    -0.0666     0.3369 C.ar    
  14 C14            0.1207     1.2097     0.8232 C.ar    
  15 O15            0.5510     3.7924     1.9415 O.2     
  16 C16            4.8378     1.3654    -0.3767 C.3     
  17 C17            4.9966     1.3287    -1.8748 C.2     
  18 N18            6.0670     0.7216    -2.4244 N.am    
  19 O19            4.1608     1.8457    -2.5862 O.2     
  20 N20            6.2146     0.6875    -3.8172 N.2     
  21 C21            7.2456     0.1029    -4.3464 C.2     
  22 C22            7.4009     0.0670    -5.8117 C.ar    
  23 C23            8.5103    -0.5621    -6.3833 C.ar    
  24 C24            8.6520    -0.5936    -7.7539 C.ar    
  25 C25            7.6921     0.0001    -8.5678 C.ar    
  26 C26            6.5871     0.6268    -8.0019 C.ar    
  27 C27            6.4360     0.6571    -6.6331 C.ar    
  28 N28            7.8388    -0.0331    -9.9548 N.3     
  29 C29            6.7066    -0.7228   -10.5876 C.3     
  30 C30            8.0012     1.3214   -10.4996 C.3     
  31 Br31          10.1527    -1.4438    -8.5291 Br      
  32 H32            1.8095     5.9964     1.4683 H       
  33 H33            3.7712     7.2569     0.7302 H       
  34 H34            5.6492     6.1075    -0.3628 H       
  35 H35            5.5859     3.6828    -0.7303 H       
  36 H36            3.1944    -0.3947    -0.8835 H       
  37 H37            1.0980    -1.6486    -0.6582 H       
  38 H38           -0.8574    -0.6320     0.4307 H       
  39 H39           -0.7417     1.6512     1.3003 H       
  40 H40            5.6895     1.8815     0.0664 H       
  41 H41            4.7895     0.3469     0.0086 H       
  42 H42            6.7353     0.3083    -1.8556 H       
  43 H43            7.9896    -0.3573    -3.7131 H       
  44 H44            9.2557    -1.0227    -5.7519 H       
  45 H45            5.8442     1.0868    -8.6367 H       
  46 H46            5.5773     1.1437    -6.1946 H       
  47 H47            5.7815    -0.1993   -10.3464 H       
  48 H48            6.8464    -0.7344   -11.6685 H       
  49 H49            6.6519    -1.7465   -10.2173 H       
  50 H50            8.8876     1.7838   -10.0654 H       
  51 H51            8.1135     1.2665   -11.5824 H       
  52 H52            7.1230     1.9190   -10.2553 H       
@<TRIPOS>BOND
   1    1    2 ar
   2    1    6 ar
   3    1   32 1
   4    2    3 ar
   5    2   33 1
   6    3    4 ar
   7    3   34 1
   8    4    5 ar
   9    4   35 1
  10    5    6 ar
  11    5    7 1
  12    6   10 1
  13    7    8 1
  14    7   16 1
  15    8    9 ar
  16    8   11 ar
  17    9   10 1
  18    9   14 ar
  19   10   15 2
  20   11   12 ar
  21   11   36 1
  22   12   13 ar
  23   12   37 1
  24   13   14 ar
  25   13   38 1
  26   14   39 1
  27   16   17 1
  28   16   40 1
  29   16   41 1
  30   17   18 am
  31   17   19 2
  32   18   20 1
  33   18   42 1
  34   20   21 2
  35   21   22 1
  36   21   43 1
  37   22   23 ar
  38   22   27 ar
  39   23   24 ar
  40   23   44 1
  41   24   25 ar
  42   24   31 1
  43   25   26 ar
  44   25   28 1
  45   26   27 ar
  46   26   45 1
  47   27   46 1
  48   28   29 1
  49   28   30 1
  50   29   47 1
  51   29   48 1
  52   29   49 1
  53   30   50 1
  54   30   51 1
  55   30   52 1

#	End of record

