#	Name: ASD01140199
#	Creating user name:	WinNT
#	Creation time:	15. 06. 2019 19:00

#	Modifying user name:	WinNT
#	Modification time:	15. 06. 2019 19:00

#	Program:	/corina/corina34_cracker 3.40 0067  02.08.2006

@<TRIPOS>MOLECULE
ASD01140199
  58   61    0    0    0
SMALL
NO_CHARGES


@<TRIPOS>ATOM
   1 C1            -0.2916     1.5106    -0.3476 C.3     
   2 C2            -0.2143    -0.0163    -0.2855 C.3     
   3 C3             0.4438    -0.4406     1.0288 C.3     
   4 C4             1.8545     0.1467     1.1068 C.3     
   5 C5             1.7762     1.6738     1.0438 C.3     
   6 C6             1.1213     2.0945    -0.2745 C.3     
   7 C7             1.9517     1.5632    -1.4436 C.3     
   8 C8             3.1886     2.2582     1.1193 C.3     
   9 C9             4.0208     1.7343    -0.0530 C.3     
  10 C10            3.3676     2.1557    -1.3699 C.3     
  11 C11            2.1248     1.4611    -3.9651 C.3     
  12 C12            1.2703     1.9027    -2.7648 C.3     
  13 C13            3.4721     2.1443    -3.8356 C.3     
  14 C14            4.4974     1.8410    -4.9232 C.3     
  15 C15            4.1475     1.6010    -2.5473 C.3     
  16 C16            5.5802     2.1210    -2.7054 C.3     
  17 C17            5.8729     1.8802    -4.2116 C.3     
  18 C18            1.0483     3.6211    -0.3450 C.3     
  19 H19            1.1818     2.0427     1.8797 H       
  20 H20            3.3150     3.2431    -1.4234 H       
  21 C21            3.2756     3.6571    -3.7178 C.3     
  22 C22            4.4383     2.8900    -6.0036 C.2     
  23 O23            0.5179    -1.8665     1.0857 O.3     
  24 H24            2.0192     0.4783    -1.3631 H       
  25 H25            4.1263     0.5112    -2.5363 H       
  26 C26            3.4688     2.7396    -7.1475 C.3     
  27 O27            5.1678     3.8509    -5.9527 O.2     
  28 O28            3.6018     3.8525    -8.0340 O.3     
  29 H29           -0.7620     1.8131    -1.2832 H       
  30 H30           -0.8812     1.8792     0.4918 H       
  31 H31           -1.2198    -0.4335    -0.3396 H       
  32 H32            0.3774    -0.3845    -1.1236 H       
  33 H33           -0.1490    -0.0740     1.8668 H       
  34 H34            2.3221    -0.1547     2.0441 H       
  35 H35            2.4480    -0.2215     0.2700 H       
  36 H36            3.1349     3.3457     1.0695 H       
  37 H37            3.6554     1.9601     2.0581 H       
  38 H38            5.0275     2.1487     0.0022 H       
  39 H39            4.0724     0.6466    -0.0047 H       
  40 H40            2.2548     0.3790    -3.9496 H       
  41 H41            1.6432     1.7643    -4.8947 H       
  42 H42            0.3054     1.3976    -2.8088 H       
  43 H43            1.1106     2.9797    -2.8175 H       
  44 H44            4.3187     0.8522    -5.3455 H       
  45 H45            5.6335     3.1833    -2.4671 H       
  46 H46            6.2688     1.5500    -2.0826 H       
  47 H47            6.3903     0.9301    -4.3450 H       
  48 H48            6.4772     2.6951    -4.6102 H       
  49 H49            0.4573     3.9956     0.4908 H       
  50 H50            2.0549     4.0358    -0.2929 H       
  51 H51            0.5805     3.9195    -1.2833 H       
  52 H52            2.6283     3.8744    -2.8682 H       
  53 H53            4.2423     4.1387    -3.5707 H       
  54 H54            2.8161     4.0359    -4.6308 H       
  55 H55           -0.3418    -2.3070     1.0418 H       
  56 H56            3.6840     1.8174    -7.6873 H       
  57 H57            2.4511     2.7042    -6.7590 H       
  58 H58            3.0066     3.8221    -8.7955 H       
@<TRIPOS>BOND
   1    1    2 1
   2    1    6 1
   3    1   29 1
   4    1   30 1
   5    2    3 1
   6    2   31 1
   7    2   32 1
   8    3    4 1
   9    3   23 1
  10    3   33 1
  11    4    5 1
  12    4   34 1
  13    4   35 1
  14    5    6 1
  15    5    8 1
  16    5   19 1
  17    6    7 1
  18    6   18 1
  19    7   10 1
  20    7   24 1
  21    7   12 1
  22    8    9 1
  23    8   36 1
  24    8   37 1
  25    9   10 1
  26    9   38 1
  27    9   39 1
  28   10   15 1
  29   10   20 1
  30   11   12 1
  31   11   13 1
  32   11   40 1
  33   11   41 1
  34   12   42 1
  35   12   43 1
  36   13   15 1
  37   13   21 1
  38   13   14 1
  39   14   17 1
  40   14   22 1
  41   14   44 1
  42   15   16 1
  43   15   25 1
  44   16   17 1
  45   16   45 1
  46   16   46 1
  47   17   47 1
  48   17   48 1
  49   18   49 1
  50   18   50 1
  51   18   51 1
  52   21   52 1
  53   21   53 1
  54   21   54 1
  55   22   26 1
  56   22   27 2
  57   23   55 1
  58   26   28 1
  59   26   56 1
  60   26   57 1
  61   28   58 1

#	End of record

