#	Name: ASD01883529
#	Creating user name:	WinNT
#	Creation time:	15. 06. 2019 19:46

#	Modifying user name:	WinNT
#	Modification time:	15. 06. 2019 19:46

#	Program:	/corina/corina34_cracker 3.40 0067  02.08.2006

@<TRIPOS>MOLECULE
ASD01883529
  49   51    0    0    0
SMALL
NO_CHARGES


@<TRIPOS>ATOM
   1 C1            -0.0171     1.4071     0.0098 C.2     
   2 C2            -0.8714     1.4201    -1.1134 C.2     
   3 C3            -2.0202     0.7129    -1.0898 C.2     
   4 N4            -2.3698    -0.0153     0.0040 N.am    
   5 C5            -1.5826    -0.0538     1.0949 C.2     
   6 C6            -0.3784     0.6577     1.1181 C.2     
   7 O7            -1.9182    -0.7152     2.0654 O.2     
   8 Cl8            0.6431     0.6130     2.5210 Cl      
   9 N9             1.1653     2.1265     0.0024 N.pl3   
  10 C10            1.1493     3.5921    -0.0998 C.3     
  11 C11            2.0460     4.0148    -1.2677 C.3     
  12 C12            3.4405     3.4132    -1.0786 C.3     
  13 C13            3.3425     1.8859    -1.0731 C.3     
  14 C14            2.4602     1.4395     0.1026 C.3     
  15 C15           -3.6251    -0.7706    -0.0049 C.3     
  16 C16            4.3351     3.8548    -2.2081 C.ar    
  17 C17            5.4825     4.5773    -1.9390 C.ar    
  18 C18            6.3031     4.9824    -2.9750 C.ar    
  19 C19            5.9766     4.6646    -4.2801 C.ar    
  20 C20            4.8297     3.9413    -4.5491 C.ar    
  21 C21            4.0114     3.5325    -3.5128 C.ar    
  22 C22           -3.3699    -2.1778    -0.5485 C.3     
  23 C23           -4.6809    -2.9665    -0.5579 C.3     
  24 C24           -4.4256    -4.3737    -1.1015 C.3     
  25 H25           -0.6068     1.9946    -1.9888 H       
  26 H26           -2.6712     0.7256    -1.9515 H       
  27 H27            0.1301     3.9347    -0.2790 H       
  28 H28            1.5257     4.0271     0.8260 H       
  29 H29            1.6184     3.6550    -2.2035 H       
  30 H30            2.1195     5.1020    -1.2950 H       
  31 H31            3.8574     3.7538    -0.1309 H       
  32 H32            2.9026     1.5462    -2.0107 H       
  33 H33            4.3387     1.4579    -0.9618 H       
  34 H34            2.9459     1.6993     1.0432 H       
  35 H35            2.3053     0.3616     0.0546 H       
  36 H36           -4.0155    -0.8386     1.0105 H       
  37 H37           -4.3507    -0.2619    -0.6397 H       
  38 H38            5.7376     4.8256    -0.9193 H       
  39 H39            7.1991     5.5475    -2.7648 H       
  40 H40            6.6174     4.9817    -5.0896 H       
  41 H41            4.5745     3.6933    -5.5688 H       
  42 H42            3.1153     2.9674    -3.7230 H       
  43 H43           -2.9795    -2.1097    -1.5640 H       
  44 H44           -2.6443    -2.6864     0.0863 H       
  45 H45           -5.0712    -3.0345     0.4576 H       
  46 H46           -5.4064    -2.4578    -1.1927 H       
  47 H47           -4.0352    -4.3057    -2.1169 H       
  48 H48           -3.7000    -4.8824    -0.4667 H       
  49 H49           -5.3595    -4.9356    -1.1081 H       
@<TRIPOS>BOND
   1    1    2 1
   2    1    9 1
   3    1    6 2
   4    2    3 2
   5    2   25 1
   6    3    4 1
   7    3   26 1
   8    4    5 am
   9    4   15 1
  10    5    6 1
  11    5    7 2
  12    6    8 1
  13    9   10 1
  14    9   14 1
  15   10   11 1
  16   10   27 1
  17   10   28 1
  18   11   12 1
  19   11   29 1
  20   11   30 1
  21   12   13 1
  22   12   16 1
  23   12   31 1
  24   13   14 1
  25   13   32 1
  26   13   33 1
  27   14   34 1
  28   14   35 1
  29   15   22 1
  30   15   36 1
  31   15   37 1
  32   16   17 ar
  33   16   21 ar
  34   17   18 ar
  35   17   38 1
  36   18   19 ar
  37   18   39 1
  38   19   20 ar
  39   19   40 1
  40   20   21 ar
  41   20   41 1
  42   21   42 1
  43   22   23 1
  44   22   43 1
  45   22   44 1
  46   23   24 1
  47   23   45 1
  48   23   46 1
  49   24   47 1
  50   24   48 1
  51   24   49 1

#	End of record

