#	Name: ASD02030547
#	Creating user name:	WinNT
#	Creation time:	15. 06. 2019 20:15

#	Modifying user name:	WinNT
#	Modification time:	15. 06. 2019 20:15

#	Program:	/corina/corina34_cracker 3.40 0067  02.08.2006

@<TRIPOS>MOLECULE
ASD02030547
  21   22    0    0    0
SMALL
NO_CHARGES


@<TRIPOS>ATOM
   1 C1            -0.0170     1.3999     0.0097 C.ar    
   2 C2             0.0021    -0.0041     0.0020 C.ar    
   3 C3             1.1914    -0.6669    -0.0549 C.ar    
   4 C4             2.3936     0.0396    -0.0956 C.ar    
   5 C5             2.3965     1.4252    -0.0641 C.ar    
   6 C6             1.1971     2.1161     0.0020 C.ar    
   7 O7             1.1932     3.4680     0.0827 O.3     
   8 C8             0.1000     4.0954    -0.4066 C.2     
   9 C9            -1.2157     3.4782    -0.1628 C.2     
  10 C10           -1.2468     2.1005     0.0311 C.2     
  11 O11            0.1994     5.1368    -1.0281 O.2     
  12 C12           -2.4443     4.2846    -0.1250 C.2     
  13 O13           -3.5166     3.7492     0.0780 O.2     
  14 O14           -2.3818     5.6176    -0.3156 O.3     
  15 O15            3.5687    -0.6348    -0.1661 O.3     
  16 H16           -0.9243    -0.5578     0.0415 H       
  17 H17            1.2033    -1.7467    -0.0683 H       
  18 H18            3.3314     1.9652    -0.0917 H       
  19 H19           -2.1802     1.5819     0.1926 H       
  20 H20           -3.2161     6.1055    -0.2818 H       
  21 H21            3.8678    -0.8104    -1.0687 H       
@<TRIPOS>BOND
   1    1    2 ar
   2    1    6 ar
   3    1   10 1
   4    2    3 ar
   5    2   16 1
   6    3    4 ar
   7    3   17 1
   8    4    5 ar
   9    4   15 1
  10    5    6 ar
  11    5   18 1
  12    6    7 1
  13    7    8 1
  14    8    9 1
  15    8   11 2
  16    9   10 2
  17    9   12 1
  18   10   19 1
  19   12   13 2
  20   12   14 1
  21   14   20 1
  22   15   21 1

#	End of record

