#	Name: ASD01209143
#	Creating user name:	WinNT
#	Creation time:	15. 06. 2019 19:11

#	Modifying user name:	WinNT
#	Modification time:	15. 06. 2019 19:11

#	Program:	/corina/corina34_cracker 3.40 0067  02.08.2006

@<TRIPOS>MOLECULE
ASD01209143
  73   76    0    0    0
SMALL
NO_CHARGES


@<TRIPOS>ATOM
   1 C1            -0.0659     1.4583    -0.0025 C.ar    
   2 C2             0.0528     0.0762    -0.0355 C.ar    
   3 C3            -1.0806    -0.7226     0.0114 C.ar    
   4 C4            -2.3363    -0.1427     0.0916 C.ar    
   5 C5            -2.4600     1.2464     0.1250 C.ar    
   6 C6            -1.3170     2.0460     0.0829 C.ar    
   7 O7             1.0476     2.2362    -0.0484 O.3     
   8 C8             0.8490     3.6483    -0.1416 C.3     
   9 O9            -0.9589    -2.0757    -0.0216 O.3     
  10 C10           -1.4243    -2.7296    -1.1131 C.ar    
  11 N11           -1.8807    -2.0435    -2.1520 N.ar    
  12 C12           -3.7979     1.8697     0.2105 C.2     
  13 N13           -4.9002     1.0956     0.2563 N.am    
  14 O14           -3.9037     3.0804     0.2396 O.2     
  15 C15           -6.1679     1.6862     0.3374 C.2     
  16 P16          -10.2807     1.5525     2.2716 P.3     
  17 O17           -9.4427     0.5296     2.9363 O.2     
  18 C18           -2.3341    -2.6803    -3.2164 C.ar    
  19 C19           -2.3325    -4.0740    -3.2471 C.ar    
  20 N20           -1.8736    -4.7618    -2.2026 N.ar    
  21 C21           -1.4176    -4.1257    -1.1455 C.ar    
  22 C22           -9.7751     1.7126     0.5274 C.3     
  23 C23           -6.4349     3.0642     0.3785 C.2     
  24 N24           -7.3140     1.0485     0.3824 N.2     
  25 N25           -8.3399     1.9990     0.4594 N.pl3   
  26 C26           -7.7754     3.2250     0.4553 C.2     
  27 O27          -11.8268     1.1091     2.3435 O.3     
  28 O28          -10.0929     2.9672     3.0168 O.3     
  29 C29            0.6455     4.2283     1.2595 C.3     
  30 C30            2.0763     4.2943    -0.7876 C.3     
  31 C31          -12.4913     0.7994     3.5701 C.3     
  32 C32          -13.9446     0.4182     3.2807 C.3     
  33 C33          -10.3050     3.1423     4.4191 C.3     
  34 C34          -10.0410     4.6014     4.7965 C.3     
  35 C35           -2.8404    -4.7886    -4.4383 C.2     
  36 O36           -3.2594    -4.1606    -5.3909 O.2     
  37 N37           -2.8387    -6.1360    -4.4674 N.am    
  38 C38           -3.2427    -7.1750    -5.4267 C.3     
  39 C39           -3.4769    -8.1102    -4.2324 C.3     
  40 C40           -2.4258    -7.2144    -3.5567 C.3     
  41 H41            1.0301    -0.3790    -0.0984 H       
  42 H42           -3.2181    -0.7651     0.1278 H       
  43 H43           -1.4084     3.1218     0.1089 H       
  44 H44           -0.0317     3.8519    -0.7506 H       
  45 H45           -4.8158     0.1296     0.2332 H       
  46 H46           -2.7062    -2.1217    -4.0625 H       
  47 H47           -1.0456    -4.6834    -0.2988 H       
  48 H48           -9.9851     0.7814     0.0013 H       
  49 H49          -10.3304     2.5265     0.0614 H       
  50 H50           -5.7000     3.8552     0.3532 H       
  51 H51           -8.3011     4.1672     0.5020 H       
  52 H52            1.5262     4.0246     1.8685 H       
  53 H53            0.4940     5.3053     1.1884 H       
  54 H54           -0.2289     3.7680     1.7197 H       
  55 H55            2.2214     3.8811    -1.7858 H       
  56 H56            1.9249     5.3714    -0.8587 H       
  57 H57            2.9571     4.0906    -0.1786 H       
  58 H58          -11.9866    -0.0356     4.0560 H       
  59 H59          -12.4677     1.6696     4.2260 H       
  60 H60          -14.4493     1.2532     2.7948 H       
  61 H61          -13.9682    -0.4521     2.6248 H       
  62 H62          -14.4515     0.1819     4.2163 H       
  63 H63          -11.3347     2.8838     4.6659 H       
  64 H64           -9.6251     2.4950     4.9731 H       
  65 H65           -9.0112     4.8599     4.5497 H       
  66 H66          -10.7209     5.2487     4.2426 H       
  67 H67          -10.2027     4.7350     5.8661 H       
  68 H68           -4.1542    -6.9311    -5.9724 H       
  69 H69           -2.4336    -7.5003    -6.0807 H       
  70 H70           -4.4744    -8.0399    -3.7984 H       
  71 H71           -3.1475    -9.1362    -4.3968 H       
  72 H72           -1.4015    -7.5521    -3.7145 H       
  73 H73           -2.6439    -7.0030    -2.5098 H       
@<TRIPOS>BOND
   1    1    2 ar
   2    1    7 1
   3    1    6 ar
   4    2    3 ar
   5    2   41 1
   6    3    4 ar
   7    3    9 1
   8    4    5 ar
   9    4   42 1
  10    5    6 ar
  11    5   12 1
  12    6   43 1
  13    7    8 1
  14    8   29 1
  15    8   30 1
  16    8   44 1
  17    9   10 1
  18   10   11 ar
  19   10   21 ar
  20   11   18 ar
  21   12   13 am
  22   12   14 2
  23   13   15 1
  24   13   45 1
  25   15   23 1
  26   15   24 2
  27   16   17 2
  28   16   27 1
  29   16   22 1
  30   16   28 1
  31   18   19 ar
  32   18   46 1
  33   19   20 ar
  34   19   35 1
  35   20   21 ar
  36   21   47 1
  37   22   25 1
  38   22   48 1
  39   22   49 1
  40   23   26 2
  41   23   50 1
  42   24   25 1
  43   25   26 1
  44   26   51 1
  45   27   31 1
  46   28   33 1
  47   29   52 1
  48   29   53 1
  49   29   54 1
  50   30   55 1
  51   30   56 1
  52   30   57 1
  53   31   32 1
  54   31   58 1
  55   31   59 1
  56   32   60 1
  57   32   61 1
  58   32   62 1
  59   33   34 1
  60   33   63 1
  61   33   64 1
  62   34   65 1
  63   34   66 1
  64   34   67 1
  65   35   36 2
  66   35   37 am
  67   37   38 1
  68   37   40 1
  69   38   39 1
  70   38   68 1
  71   38   69 1
  72   39   40 1
  73   39   70 1
  74   39   71 1
  75   40   72 1
  76   40   73 1

#	End of record

