#	Name: ASD01001262
#	Creating user name:	WinNT
#	Creation time:	15. 06. 2019 18:55

#	Modifying user name:	WinNT
#	Modification time:	15. 06. 2019 18:55

#	Program:	/corina/corina34_cracker 3.40 0067  02.08.2006

@<TRIPOS>MOLECULE
ASD01001262
  47   50    0    0    0
SMALL
NO_CHARGES


@<TRIPOS>ATOM
   1 C1            -0.0477     1.4190     0.4942 C.ar    
   2 C2            -0.0451     0.0593     0.7384 C.ar    
   3 C3             1.1440    -0.5951     1.0195 C.ar    
   4 C4             2.3343     0.1071     1.0575 C.ar    
   5 C5             2.3455     1.4681     0.8155 C.ar    
   6 C6             1.1503     2.1338     0.5310 C.ar    
   7 C7             1.1548     3.5890     0.2706 C.2     
   8 S8            -0.2519     4.6094    -0.1067 S.3     
   9 C9             0.6943     6.1660    -0.2557 C.3     
  10 N10            2.0673     5.7260     0.0133 N.am    
  11 N11            2.1840     4.3767     0.2773 N.2     
  12 F12           -1.2041    -0.6340     0.7036 F       
  13 F13            3.5094     2.1530     0.8539 F       
  14 C14            3.1218     6.5668     0.0084 C.2     
  15 O15            2.9427     7.7642    -0.0753 O.2     
  16 C16            0.5602     6.7276    -1.6643 C.3     
  17 C17            1.1134     8.1599    -1.6694 C.3     
  18 O18            0.3107     8.9583    -0.7990 O.3     
  19 C19            0.0644     8.4924     0.4527 C.ar    
  20 C20            0.2282     7.1536     0.7725 C.ar    
  21 C21           -0.3621     9.3874     1.4279 C.ar    
  22 C22           -0.6246     8.9461     2.7086 C.ar    
  23 C23           -0.4634     7.6096     3.0248 C.ar    
  24 C24           -0.0381     6.7179     2.0599 C.ar    
  25 C25            4.5224     6.0195     0.1067 C.3     
  26 C26            1.3590     5.8632    -2.6419 C.3     
  27 C27            1.1212     6.3565    -4.0705 C.3     
  28 N28            1.8882     5.5265    -5.0091 N.3     
  29 H29           -0.9743     1.9269     0.2709 H       
  30 H30            1.1405    -1.6581     1.2101 H       
  31 H31            3.2574    -0.4087     1.2772 H       
  32 H32           -0.4898     6.7386    -1.9567 H       
  33 H33            2.1444     8.1556    -1.3157 H       
  34 H34            1.0717     8.5650    -2.6805 H       
  35 H35           -0.4885    10.4313     1.1819 H       
  36 H36           -0.9554     9.6440     3.4635 H       
  37 H37           -0.6693     7.2632     4.0268 H       
  38 H38            0.0865     5.6748     2.3102 H       
  39 H39            4.9069     5.8230    -0.8941 H       
  40 H40            5.1627     6.7472     0.6055 H       
  41 H41            4.5108     5.0925     0.6800 H       
  42 H42            2.4207     5.9335    -2.4052 H       
  43 H43            1.0358     4.8257    -2.5572 H       
  44 H44            0.0596     6.2862    -4.3072 H       
  45 H45            1.4444     7.3940    -4.1552 H       
  46 H46            1.6529     4.5509    -4.9046 H       
  47 H47            1.7478     5.8325    -5.9603 H       
@<TRIPOS>BOND
   1    1    2 ar
   2    1    6 ar
   3    1   29 1
   4    2    3 ar
   5    2   12 1
   6    3    4 ar
   7    3   30 1
   8    4    5 ar
   9    4   31 1
  10    5    6 ar
  11    5   13 1
  12    6    7 1
  13    7    8 1
  14    7   11 2
  15    8    9 1
  16    9   10 1
  17    9   16 1
  18    9   20 1
  19   10   11 1
  20   10   14 am
  21   14   15 2
  22   14   25 1
  23   16   17 1
  24   16   26 1
  25   16   32 1
  26   17   18 1
  27   17   33 1
  28   17   34 1
  29   18   19 1
  30   19   20 ar
  31   19   21 ar
  32   20   24 ar
  33   21   22 ar
  34   21   35 1
  35   22   23 ar
  36   22   36 1
  37   23   24 ar
  38   23   37 1
  39   24   38 1
  40   25   39 1
  41   25   40 1
  42   25   41 1
  43   26   27 1
  44   26   42 1
  45   26   43 1
  46   27   28 1
  47   27   44 1
  48   27   45 1
  49   28   46 1
  50   28   47 1

#	End of record

