#	Name: ASD01152208
#	Creating user name:	WinNT
#	Creation time:	15. 06. 2019 19:05

#	Modifying user name:	WinNT
#	Modification time:	15. 06. 2019 19:05

#	Program:	/corina/corina34_cracker 3.40 0067  02.08.2006

@<TRIPOS>MOLECULE
ASD01152208
  27   29    0    0    0
SMALL
NO_CHARGES


@<TRIPOS>ATOM
   1 N1            -0.0169     1.3957     0.0097 N.2     
   2 N2             0.0021    -0.0041     0.0020 N.am    
   3 C3             1.1654    -0.6786    -0.0127 C.2     
   4 N4             2.3442    -0.0285    -0.0200 N.am    
   5 C5             2.3714     1.3204    -0.0130 C.2     
   6 C6             1.1053     2.0606     0.0026 C.2     
   7 O7             1.1523    -1.8945    -0.0191 O.2     
   8 O8             3.4331     1.9154    -0.0192 O.2     
   9 C9             3.5980    -0.7860    -0.0351 C.3     
  10 O10            5.0183    -1.9509    -5.3481 O.3     
  11 C11            4.0061    -2.9454    -5.5924 C.3     
  12 O12            3.6898    -3.4416    -4.2782 O.3     
  13 C13            3.9687    -2.4143    -3.4238 C.ar    
  14 C14            4.7857    -1.4975    -4.0818 C.ar    
  15 C15            5.2111    -0.3564    -3.4222 C.ar    
  16 C16            4.8255    -0.1289    -2.1139 C.ar    
  17 C17            4.0152    -1.0386    -1.4610 C.ar    
  18 C18            3.5869    -2.1802    -2.1132 C.ar    
  19 F19            2.8787    -2.3646    -6.1830 F       
  20 F20            4.5103    -3.9725    -6.3974 F       
  21 Br21           1.0999     3.9516     0.0122 Br      
  22 H22           -0.8351    -0.4940     0.0077 H       
  23 H23            4.3738    -0.2147     0.4747 H       
  24 H24            3.4534    -1.7382     0.4753 H       
  25 H25            5.8447     0.3559    -3.9297 H       
  26 H26            5.1585     0.7612    -1.6009 H       
  27 H27            2.9536    -2.8892    -1.6007 H       
@<TRIPOS>BOND
   1    1    2 1
   2    1    6 2
   3    2    3 am
   4    2   22 1
   5    3    4 am
   6    3    7 2
   7    4    5 am
   8    4    9 1
   9    5    6 1
  10    5    8 2
  11    6   21 1
  12    9   17 1
  13    9   23 1
  14    9   24 1
  15   10   11 1
  16   10   14 1
  17   11   12 1
  18   11   19 1
  19   11   20 1
  20   12   13 1
  21   13   14 ar
  22   13   18 ar
  23   14   15 ar
  24   15   16 ar
  25   15   25 1
  26   16   17 ar
  27   16   26 1
  28   17   18 ar
  29   18   27 1

#	End of record

