#	Name: ASD02198188
#	Creating user name:	WinNT
#	Creation time:	15. 06. 2019 20:18

#	Modifying user name:	WinNT
#	Modification time:	15. 06. 2019 20:18

#	Program:	/corina/corina34_cracker 3.40 0067  02.08.2006

@<TRIPOS>MOLECULE
ASD02198188
  44   47    0    0    0
SMALL
NO_CHARGES


@<TRIPOS>ATOM
   1 C1            -0.0240     1.3769    -0.4185 C.2     
   2 C2             0.0057    -0.0021    -0.4407 C.2     
   3 C3            -1.0600    -0.8136     0.0656 C.1     
   4 S4             1.3981     2.0276    -1.0974 S.3     
   5 C5             2.0533     0.4306    -1.4212 C.2     
   6 C6             1.1643    -0.5340    -1.0000 C.2     
   7 C7             3.2918     0.1762    -2.0167 C.2     
   8 C8             4.1769     1.3223    -2.4338 C.3     
   9 O9             3.6553    -0.9704    -2.1984 O.2     
  10 N10            1.3993    -1.8932    -1.1202 N.pl3   
  11 N11           -1.0639     2.1264     0.0792 N.pl3   
  12 N12           -1.9053    -1.4574     0.4673 N.1     
  13 C13           -0.9457     3.5183     0.1635 C.ar    
  14 C14           -2.0354     4.3273    -0.1316 C.ar    
  15 C15           -1.9179     5.7005    -0.0482 C.ar    
  16 C16           -0.7115     6.2723     0.3298 C.ar    
  17 C17            0.3775     5.4647     0.6248 C.ar    
  18 C18            0.2598     4.0912     0.5479 C.ar    
  19 C19            5.6813     1.0577    -2.5208 C.3     
  20 C20            4.8591     1.2271    -3.8000 C.3     
  21 O21           -0.5964     7.6246     0.4108 O.3     
  22 C22           -1.1732     8.2516     1.4693 C.ar    
  23 C23           -1.7886     7.5084     2.4665 C.ar    
  24 C24           -2.3738     8.1483     3.5417 C.ar    
  25 C25           -2.3466     9.5283     3.6250 C.ar    
  26 C26           -1.7344    10.2713     2.6325 C.ar    
  27 C27           -1.1427     9.6361     1.5580 C.ar    
  28 H28            3.8581     2.3090    -2.0978 H       
  29 H29            2.2255    -2.2092    -1.5183 H       
  30 H30            0.7378    -2.5294    -0.8063 H       
  31 H31           -1.8794     1.6903     0.3719 H       
  32 H32           -2.9743     3.8824    -0.4266 H       
  33 H33           -2.7652     6.3297    -0.2777 H       
  34 H34            1.3162     5.9105     0.9190 H       
  35 H35            1.1075     3.4627     0.7778 H       
  36 H36            6.3522     1.8704    -2.2424 H       
  37 H37            6.0308     0.0546    -2.2764 H       
  38 H38            4.6678     0.3355    -4.3971 H       
  39 H39            4.9891     2.1513    -4.3631 H       
  40 H40           -1.8104     6.4305     2.4018 H       
  41 H41           -2.8533     7.5703     4.3179 H       
  42 H42           -2.8047    10.0267     4.4665 H       
  43 H43           -1.7152    11.3490     2.6995 H       
  44 H44           -0.6643    10.2169     0.7832 H       
@<TRIPOS>BOND
   1    1    2 2
   2    1    4 1
   3    1   11 1
   4    2    3 1
   5    2    6 1
   6    3   12 3
   7    4    5 1
   8    5    6 2
   9    5    7 1
  10    6   10 1
  11    7    8 1
  12    7    9 2
  13    8   19 1
  14    8   20 1
  15    8   28 1
  16   10   29 1
  17   10   30 1
  18   11   13 1
  19   11   31 1
  20   13   14 ar
  21   13   18 ar
  22   14   15 ar
  23   14   32 1
  24   15   16 ar
  25   15   33 1
  26   16   17 ar
  27   16   21 1
  28   17   18 ar
  29   17   34 1
  30   18   35 1
  31   19   20 1
  32   19   36 1
  33   19   37 1
  34   20   38 1
  35   20   39 1
  36   21   22 1
  37   22   23 ar
  38   22   27 ar
  39   23   24 ar
  40   23   40 1
  41   24   25 ar
  42   24   41 1
  43   25   26 ar
  44   25   42 1
  45   26   27 ar
  46   26   43 1
  47   27   44 1

#	End of record

