#	Name: ASD03331430
#	Creating user name:	WinNT
#	Creation time:	15. 06. 2019 20:39

#	Modifying user name:	WinNT
#	Modification time:	15. 06. 2019 20:39

#	Program:	/corina/corina34_cracker 3.40 0067  02.08.2006

@<TRIPOS>MOLECULE
ASD03331430
  73   77    0    0    0
SMALL
NO_CHARGES


@<TRIPOS>ATOM
   1 N1            -0.4201     1.2093    -0.2376 N.am    
   2 C2            -0.4793    -0.2575    -0.2982 C.3     
   3 C3             0.1342    -0.7215    -1.6231 C.3     
   4 C4             1.5447    -0.1432    -1.7577 C.3     
   5 C5             1.4724     1.3855    -1.7680 C.3     
   6 C6             0.8741     1.8733    -0.4448 C.3     
   7 C7             2.3870    -0.5981    -0.5938 C.2     
   8 O8             2.5658     0.1411     0.3509 O.2     
   9 N9             2.9416    -1.8265    -0.6027 N.am    
  10 N10            2.1486    -0.6130    -3.0117 N.3     
  11 C11            3.4812    -0.0263    -3.2065 C.3     
  12 C12            4.0349    -0.4677    -4.5367 C.ar    
  13 C13            3.7917     0.2850    -5.6703 C.ar    
  14 C14            4.3008    -0.1205    -6.8921 C.ar    
  15 C15            5.0533    -1.2800    -6.9771 C.ar    
  16 C16            5.2951    -2.0307    -5.8426 C.ar    
  17 C17            4.7905    -1.6219    -4.6219 C.ar    
  18 F18            4.0634     0.6141    -8.0008 F       
  19 C19           -1.5329     1.9323    -0.0022 C.2     
  20 O20           -2.6126     1.3780     0.0781 O.2     
  21 N21           -1.7775     5.5665    -0.1035 N.pl3   
  22 C22           -2.1489     4.3415    -0.5500 C.2     
  23 C23           -1.4416     3.3936     0.1580 C.2     
  24 C24           -0.6087     4.0921     1.0704 C.2     
  25 C25           -0.8357     5.4179     0.8875 C.2     
  26 C26           -3.1598     4.0643    -1.6327 C.3     
  27 C27           -2.4536     4.0134    -2.9890 C.3     
  28 O28           -3.4122     3.7504    -4.0156 O.3     
  29 C29           -0.1810     6.5171     1.6292 C.ar    
  30 C30           -0.1192     6.4824     3.0242 C.ar    
  31 C31            0.4938     7.5114     3.7105 C.ar    
  32 C32            1.0464     8.5758     3.0184 C.ar    
  33 C33            0.9875     8.6153     1.6358 C.ar    
  34 C34            0.3826     7.5900     0.9382 C.ar    
  35 Cl35           1.8157     9.8663     3.8881 Cl      
  36 Cl36          -0.8122     5.1486     3.8929 Cl      
  37 C37           -2.2701     6.7890    -0.5798 C.ar    
  38 C38           -3.1829     7.5127     0.1758 C.ar    
  39 C39           -3.6665     8.7174    -0.2956 C.ar    
  40 C40           -3.2421     9.2034    -1.5199 C.ar    
  41 C41           -2.3328     8.4837    -2.2750 C.ar    
  42 C42           -1.8418     7.2812    -1.8054 C.ar    
  43 Cl43          -3.8519    10.7180    -2.1096 Cl      
  44 H44            0.0843    -0.6806     0.5334 H       
  45 H45           -1.5177    -0.5840    -0.2422 H       
  46 H46            0.1842    -1.8102    -1.6393 H       
  47 H47           -0.4826    -0.3727    -2.4514 H       
  48 H48            2.4749     1.7963    -1.8873 H       
  49 H49            0.8430     1.7143    -2.5949 H       
  50 H50            0.7286     2.9527    -0.4854 H       
  51 H51            1.5480     1.6240     0.3749 H       
  52 H52            2.8589    -2.3902    -1.3878 H       
  53 H53            3.4233    -2.1468     0.1759 H       
  54 H54            2.1899    -1.6208    -3.0378 H       
  55 H55            3.4059     1.0609    -3.1869 H       
  56 H56            4.1448    -0.3589    -2.4083 H       
  57 H57            3.2044     1.1888    -5.6029 H       
  58 H58            5.4507    -1.5974    -7.9298 H       
  59 H59            5.8819    -2.9350    -5.9086 H       
  60 H60            4.9837    -2.2070    -3.7349 H       
  61 H61            0.0779     3.6511     1.7779 H       
  62 H62           -3.6456     3.1077    -1.4399 H       
  63 H63           -3.9084     4.8565    -1.6424 H       
  64 H64           -1.9678     4.9699    -3.1818 H       
  65 H65           -1.7050     3.2211    -2.9793 H       
  66 H66           -3.0340     3.7044    -4.9044 H       
  67 H67            0.5422     7.4863     4.7891 H       
  68 H68            1.4201     9.4484     1.1017 H       
  69 H69            0.3417     7.6201    -0.1406 H       
  70 H70           -3.5147     7.1337     1.1311 H       
  71 H71           -4.3768     9.2805     0.2916 H       
  72 H72           -2.0033     8.8648    -3.2303 H       
  73 H73           -1.1285     6.7223    -2.3928 H       
@<TRIPOS>BOND
   1    1    2 1
   2    1    6 1
   3    1   19 am
   4    2    3 1
   5    2   44 1
   6    2   45 1
   7    3    4 1
   8    3   46 1
   9    3   47 1
  10    4    5 1
  11    4    7 1
  12    4   10 1
  13    5    6 1
  14    5   48 1
  15    5   49 1
  16    6   50 1
  17    6   51 1
  18    7    8 2
  19    7    9 am
  20    9   52 1
  21    9   53 1
  22   10   11 1
  23   10   54 1
  24   11   12 1
  25   11   55 1
  26   11   56 1
  27   12   13 ar
  28   12   17 ar
  29   13   14 ar
  30   13   57 1
  31   14   15 ar
  32   14   18 1
  33   15   16 ar
  34   15   58 1
  35   16   17 ar
  36   16   59 1
  37   17   60 1
  38   19   20 2
  39   19   23 1
  40   21   22 1
  41   21   25 1
  42   21   37 1
  43   22   23 2
  44   22   26 1
  45   23   24 1
  46   24   25 2
  47   24   61 1
  48   25   29 1
  49   26   27 1
  50   26   62 1
  51   26   63 1
  52   27   28 1
  53   27   64 1
  54   27   65 1
  55   28   66 1
  56   29   30 ar
  57   29   34 ar
  58   30   31 ar
  59   30   36 1
  60   31   32 ar
  61   31   67 1
  62   32   33 ar
  63   32   35 1
  64   33   34 ar
  65   33   68 1
  66   34   69 1
  67   37   38 ar
  68   37   42 ar
  69   38   39 ar
  70   38   70 1
  71   39   40 ar
  72   39   71 1
  73   40   41 ar
  74   40   43 1
  75   41   42 ar
  76   41   72 1
  77   42   73 1

#	End of record

