#	Name: ASD02500854
#	Creating user name:	WinNT
#	Creation time:	15. 06. 2019 20:23

#	Modifying user name:	WinNT
#	Modification time:	15. 06. 2019 20:23

#	Program:	/corina/corina34_cracker 3.40 0067  02.08.2006

@<TRIPOS>MOLECULE
ASD02500854
  61   64    0    0    0
SMALL
NO_CHARGES


@<TRIPOS>ATOM
   1 C1             0.2831     1.3737     0.8061 C.ar    
   2 C2             0.3017    -0.0070     0.7938 C.ar    
   3 C3             1.2157    -0.6806    -0.0061 C.ar    
   4 C4             2.1082     0.0371    -0.7911 C.ar    
   5 C5             2.0845     1.4182    -0.7743 C.ar    
   6 C6             1.1734     2.0858     0.0231 C.ar    
   7 N7             1.2374    -2.0796    -0.0204 N.am    
   8 C8             0.0867    -2.7726     0.0890 C.2     
   9 O9            -0.9574    -2.1873     0.2847 O.2     
  10 C10            0.0973    -4.2747    -0.0318 C.3     
  11 N11           -1.2667    -4.7867     0.1225 N.pl3   
  12 C12           -2.1851    -4.9860    -0.8888 C.ar    
  13 C13           -3.3430    -5.4853    -0.2682 C.ar    
  14 N14           -3.0768    -5.5633     1.0610 N.2     
  15 C15           -1.8610    -5.1594     1.2880 C.2     
  16 C16           -2.1647    -4.7989    -2.2639 C.ar    
  17 C17           -3.2822    -5.1050    -3.0115 C.ar    
  18 C18           -4.4249    -5.5980    -2.3984 C.ar    
  19 C19           -4.4631    -5.7888    -1.0459 C.ar    
  20 C20           -1.2091    -5.1040     2.6456 C.3     
  21 N21           -2.1413    -4.5172     3.6114 N.am    
  22 C22           -1.6707    -3.9067     4.7170 C.2     
  23 C23           -2.6115    -3.3145     5.6916 C.ar    
  24 O24           -0.4727    -3.8430     4.9127 O.2     
  25 C25           -2.1274    -2.6815     6.8376 C.ar    
  26 C26           -3.0107    -2.1310     7.7431 C.ar    
  27 C27           -4.3737    -2.2053     7.5172 C.ar    
  28 C28           -4.8602    -2.8317     6.3835 C.ar    
  29 C29           -3.9875    -3.3808     5.4670 C.ar    
  30 C30           -0.8374    -6.5198     3.0910 C.3     
  31 C31            3.0528     2.1980    -1.6259 C.3     
  32 C32            0.1362    -7.1327     2.0824 C.3     
  33 C33           -0.1756    -6.4636     4.4693 C.3     
  34 H34           -0.4304     1.8981     1.4245 H       
  35 H35           -0.3936    -0.5624     1.4058 H       
  36 H36            2.8204    -0.4838    -1.4138 H       
  37 H37            1.1571     3.1656     0.0347 H       
  38 H38            2.0807    -2.5507    -0.1092 H       
  39 H39            0.4830    -4.5578    -1.0112 H       
  40 H40            0.7340    -4.6973     0.7455 H       
  41 H41           -1.2778    -4.4151    -2.7461 H       
  42 H42           -3.2679    -4.9597    -4.0816 H       
  43 H43           -5.2931    -5.8332    -2.9961 H       
  44 H44           -5.3578    -6.1735    -0.5790 H       
  45 H45           -0.3087    -4.4920     2.5917 H       
  46 H46           -3.0973    -4.5680     3.4552 H       
  47 H47           -1.0637    -2.6232     7.0152 H       
  48 H48           -2.6374    -1.6413     8.6303 H       
  49 H49           -5.0609    -1.7727     8.2292 H       
  50 H50           -5.9253    -2.8865     6.2133 H       
  51 H51           -4.3684    -3.8692     4.5822 H       
  52 H52           -1.7377    -7.1318     3.1450 H       
  53 H53            2.6085     2.3838    -2.6038 H       
  54 H54            3.2778     3.1487    -1.1425 H       
  55 H55            3.9724     1.6256    -1.7475 H       
  56 H56            1.0365    -6.5207     2.0284 H       
  57 H57            0.4010    -8.1413     2.3997 H       
  58 H58           -0.3353    -7.1727     1.1005 H       
  59 H59           -0.8692    -6.0269     5.1879 H       
  60 H60            0.0892    -7.4722     4.7867 H       
  61 H61            0.7248    -5.8515     4.4154 H       
@<TRIPOS>BOND
   1    1    2 ar
   2    1    6 ar
   3    1   34 1
   4    2    3 ar
   5    2   35 1
   6    3    4 ar
   7    3    7 1
   8    4    5 ar
   9    4   36 1
  10    5    6 ar
  11    5   31 1
  12    6   37 1
  13    7    8 am
  14    7   38 1
  15    8    9 2
  16    8   10 1
  17   10   11 1
  18   10   39 1
  19   10   40 1
  20   11   12 1
  21   11   15 1
  22   12   13 ar
  23   12   16 ar
  24   13   14 1
  25   13   19 ar
  26   14   15 2
  27   15   20 1
  28   16   17 ar
  29   16   41 1
  30   17   18 ar
  31   17   42 1
  32   18   19 ar
  33   18   43 1
  34   19   44 1
  35   20   21 1
  36   20   30 1
  37   20   45 1
  38   21   22 am
  39   21   46 1
  40   22   23 1
  41   22   24 2
  42   23   25 ar
  43   23   29 ar
  44   25   26 ar
  45   25   47 1
  46   26   27 ar
  47   26   48 1
  48   27   28 ar
  49   27   49 1
  50   28   29 ar
  51   28   50 1
  52   29   51 1
  53   30   32 1
  54   30   33 1
  55   30   52 1
  56   31   53 1
  57   31   54 1
  58   31   55 1
  59   32   56 1
  60   32   57 1
  61   32   58 1
  62   33   59 1
  63   33   60 1
  64   33   61 1

#	End of record

