#	Name: ASD00311034
#	Creating user name:	WinNT
#	Creation time:	15. 06. 2019 18:34

#	Modifying user name:	WinNT
#	Modification time:	15. 06. 2019 18:34

#	Program:	/corina/corina34_cracker 3.40 0067  02.08.2006

@<TRIPOS>MOLECULE
ASD00311034
  32   34    0    0    0
SMALL
NO_CHARGES


@<TRIPOS>ATOM
   1 C1            -0.0158     1.3141     0.0093 C.ar    
   2 N2             0.0021    -0.0041     0.0020 N.ar    
   3 C3             1.1287    -0.6886    -0.0125 C.ar    
   4 C4             2.3502    -0.0441    -0.0203 C.ar    
   5 C5             2.3790     1.3544    -0.0130 C.ar    
   6 C6             1.1595     2.0395     0.0019 C.ar    
   7 C7             3.6717     3.5539    -0.0127 C.2     
   8 C8             3.6652     2.0895    -0.0204 C.2     
   9 C9             6.0802     6.3792    -0.0188 C.ar    
  10 C10            4.8499     5.6963    -0.0116 C.ar    
  11 C11            4.8434     4.2235    -0.0194 C.2     
  12 C12            6.0984     7.7419    -0.0113 C.ar    
  13 C13            4.8668     8.4265     0.0037 C.ar    
  14 C14            3.6598     7.6797     0.0104 C.ar    
  15 N15            3.6999     6.3479     0.0025 N.ar    
  16 O16            4.7160     1.4767    -0.0330 O.2     
  17 C17            2.4291     8.3682     0.0255 C.ar    
  18 C18            2.4183     9.7310     0.0333 C.ar    
  19 C19            3.6060    10.4587     0.0267 C.ar    
  20 C20            4.8138     9.8284     0.0126 C.ar    
  21 F21            1.2664     7.6802     0.0317 F       
  22 H22           -0.9625     1.8339     0.0166 H       
  23 H23            1.0960    -1.7681    -0.0179 H       
  24 H24            3.2692    -0.6113    -0.0314 H       
  25 H25            1.1373     3.1192     0.0076 H       
  26 H26            2.7388     4.0980    -0.0015 H       
  27 H27            7.0072     5.8251    -0.0258 H       
  28 H28            5.7763     3.6795    -0.0306 H       
  29 H29            7.0329     8.2833    -0.0163 H       
  30 H30            1.4740    10.2550     0.0445 H       
  31 H31            3.5690    11.5380     0.0331 H       
  32 H32            5.7266    10.4055     0.0079 H       
@<TRIPOS>BOND
   1    1    2 ar
   2    1    6 ar
   3    1   22 1
   4    2    3 ar
   5    3    4 ar
   6    3   23 1
   7    4    5 ar
   8    4   24 1
   9    5    6 ar
  10    5    8 1
  11    6   25 1
  12    7    8 1
  13    7   11 2
  14    7   26 1
  15    8   16 2
  16    9   10 ar
  17    9   12 ar
  18    9   27 1
  19   10   11 1
  20   10   15 ar
  21   11   28 1
  22   12   13 ar
  23   12   29 1
  24   13   14 ar
  25   13   20 ar
  26   14   15 ar
  27   14   17 ar
  28   17   18 ar
  29   17   21 1
  30   18   19 ar
  31   18   30 1
  32   19   20 ar
  33   19   31 1
  34   20   32 1

#	End of record

