#	Name: ASD01708060
#	Creating user name:	WinNT
#	Creation time:	15. 06. 2019 19:22

#	Modifying user name:	WinNT
#	Modification time:	15. 06. 2019 19:22

#	Program:	/corina/corina34_cracker 3.40 0067  02.08.2006

@<TRIPOS>MOLECULE
ASD01708060
  57   60    0    0    0
SMALL
NO_CHARGES


@<TRIPOS>ATOM
   1 C1            -0.2188     1.4964     0.6756 C.3     
   2 C2            -1.0793    -2.0828    -0.0864 C.ar    
   3 C3            -2.2439    -2.8443    -0.0759 C.ar    
   4 C4             0.1605    -2.7031    -0.1979 C.ar    
   5 C5             0.2393    -4.0754    -0.2989 C.ar    
   6 C6            -0.9301    -4.8435    -0.2885 C.ar    
   7 C7            -2.1734    -4.2154    -0.1758 C.ar    
   8 Cl8            1.7868    -4.8495    -0.4392 Cl      
   9 C9            -0.8508    -6.3126    -0.3968 C.2     
  10 N10           -1.9783    -7.0509    -0.3867 N.am    
  11 O11            0.2318    -6.8574    -0.4953 O.2     
  12 C12           -1.8996    -8.5098    -0.4943 C.3     
  13 C13           -1.8271    -8.9032    -1.9472 C.2     
  14 O14           -1.7483   -10.1990    -2.2886 O.3     
  15 O15           -1.8399    -8.0522    -2.8049 O.2     
  16 C16            0.9450     2.0101     1.4836 C.ar    
  17 C17           -3.1421    -9.1359     0.1422 C.3     
  18 C18           -0.2026    -0.0105     0.6735 C.2     
  19 N19           -1.1558    -0.6938     0.0094 N.am    
  20 C20            2.1575     2.2541     0.8688 C.ar    
  21 C21            3.2285     2.7275     1.6132 C.ar    
  22 C22            3.0784     2.9546     2.9733 C.ar    
  23 C23            1.8634     2.7090     3.5835 C.ar    
  24 C24            0.7963     2.2423     2.8387 C.ar    
  25 O25            4.4228     2.9679     1.0107 O.3     
  26 O26            0.6682    -0.6084     1.2693 O.2     
  27 C27           -3.1498    -8.8450     1.6209 C.2     
  28 C28           -3.6655    -7.6364     2.2685 C.ar    
  29 C29           -3.4591    -7.8168     3.6486 C.ar    
  30 N30           -2.8621    -9.0467     3.8126 N.pl3   
  31 C31           -2.6907    -9.6466     2.5948 C.2     
  32 C32           -4.2622    -6.4644     1.8008 C.ar    
  33 C33           -4.6433    -5.4967     2.6873 C.ar    
  34 C34           -4.4415    -5.6696     4.0495 C.ar    
  35 C35           -3.8544    -6.8186     4.5328 C.ar    
  36 H36           -1.1512     1.8490     1.1167 H       
  37 H37           -0.1400     1.8621    -0.3481 H       
  38 H38           -3.2047    -2.3588     0.0113 H       
  39 H39            1.0623    -2.1089    -0.2057 H       
  40 H40           -3.0781    -4.8052    -0.1672 H       
  41 H41           -2.8419    -6.6162    -0.3082 H       
  42 H42           -1.0083    -8.8647     0.0231 H       
  43 H43           -1.7039   -10.4023    -3.2329 H       
  44 H44           -4.0367    -8.7140    -0.3157 H       
  45 H45           -3.1271   -10.2143    -0.0158 H       
  46 H46           -1.8951    -0.2192    -0.4020 H       
  47 H47            2.2721     2.0762    -0.1902 H       
  48 H48            3.9106     3.3227     3.5549 H       
  49 H49            1.7460     2.8856     4.6425 H       
  50 H50           -0.1526     2.0509     3.3175 H       
  51 H51            4.5172     3.8679     0.6697 H       
  52 H52           -2.6049    -9.4320     4.6647 H       
  53 H53           -2.2453   -10.6182     2.4395 H       
  54 H54           -4.4217    -6.3226     0.7421 H       
  55 H55           -5.1049    -4.5900     2.3250 H       
  56 H56           -4.7478    -4.8956     4.7377 H       
  57 H57           -3.7018    -6.9438     5.5946 H       
@<TRIPOS>BOND
   1    1   18 1
   2    1   16 1
   3    1   36 1
   4    1   37 1
   5    2    3 ar
   6    2    4 ar
   7    2   19 1
   8    3    7 ar
   9    3   38 1
  10    4    5 ar
  11    4   39 1
  12    5    6 ar
  13    5    8 1
  14    6    7 ar
  15    6    9 1
  16    7   40 1
  17    9   10 am
  18    9   11 2
  19   10   12 1
  20   10   41 1
  21   12   13 1
  22   12   17 1
  23   12   42 1
  24   13   14 1
  25   13   15 2
  26   14   43 1
  27   16   20 ar
  28   16   24 ar
  29   17   27 1
  30   17   44 1
  31   17   45 1
  32   18   19 am
  33   18   26 2
  34   19   46 1
  35   20   21 ar
  36   20   47 1
  37   21   22 ar
  38   21   25 1
  39   22   23 ar
  40   22   48 1
  41   23   24 ar
  42   23   49 1
  43   24   50 1
  44   25   51 1
  45   27   28 1
  46   27   31 2
  47   28   29 ar
  48   28   32 ar
  49   29   30 1
  50   29   35 ar
  51   30   31 1
  52   30   52 1
  53   31   53 1
  54   32   33 ar
  55   32   54 1
  56   33   34 ar
  57   33   55 1
  58   34   35 ar
  59   34   56 1
  60   35   57 1

#	End of record

