#	Name: ASD03240309
#	Creating user name:	WinNT
#	Creation time:	15. 06. 2019 20:34

#	Modifying user name:	WinNT
#	Modification time:	15. 06. 2019 20:34

#	Program:	/corina/corina34_cracker 3.40 0067  02.08.2006

@<TRIPOS>MOLECULE
ASD03240309
  96  103    0    0    0
SMALL
NO_CHARGES


@<TRIPOS>ATOM
   1 C1            -0.0681     1.3671     3.5622 C.2     
   2 N2             0.3037     0.9178     4.8072 N.pl3   
   3 O3            -3.4080     3.4808     2.9742 O.2     
   4 C4            -3.2667     3.1840     4.1416 C.2     
   5 C5            -2.0658     2.3836     4.5755 C.3     
   6 N6            -1.2270     2.0911     3.4105 N.pl3   
   7 N7             0.6809     1.1115     2.5266 N.2     
   8 N8            -4.1836     3.5699     5.0509 N.am    
   9 C9            -5.2348     4.4007     4.6704 C.ar    
  10 C10           -6.4776     4.2967     5.3113 C.ar    
  11 C11           -7.5232     5.1267     4.9293 C.ar    
  12 C12           -7.3308     6.0597     3.9095 C.ar    
  13 C13           -6.0880     6.1561     3.2762 C.ar    
  14 C14           -5.0499     5.3361     3.6599 C.ar    
  15 C15           -8.4390     6.9440     3.4992 C.2     
  16 N16           -8.2529     7.8450     2.5143 N.am    
  17 O17           -9.5199     6.8597     4.0498 O.2     
  18 C18           -9.3353     8.5965     2.0389 C.ar    
  19 C19           -9.1275     9.8782     1.5463 C.ar    
  20 C20          -10.6151     8.0578     2.0550 C.ar    
  21 C21          -11.6818     8.7984     1.5865 C.ar    
  22 C22          -11.4750    10.0824     1.0990 C.ar    
  23 C23          -10.1941    10.6190     1.0777 C.ar    
  24 N24          -12.5559    10.8328     0.6239 N.pl3   
  25 C25          -12.3798    12.2527     0.3092 C.3     
  26 C26          -13.8638    10.1987     0.4410 C.3     
  27 C27           -6.6749     3.3027     6.3939 C.ar    
  28 C28           -6.2974     1.9658     6.1888 C.ar    
  29 C29           -6.4681     1.0360     7.1640 C.ar    
  30 C30           -7.0290     1.4075     8.3988 C.ar    
  31 C31           -7.4134     2.7549     8.6173 C.ar    
  32 C32           -7.2239     3.7011     7.5987 C.ar    
  33 C33          -14.2862    10.3250    -1.0001 C.ar    
  34 C34          -13.1162    13.0874     1.3250 C.ar    
  35 C35          -14.3116    13.6548     1.0069 C.ar    
  36 C36          -15.0072    14.4299     1.9332 C.ar    
  37 C37          -14.5112    14.6419     3.1827 C.ar    
  38 C38          -13.2797    14.0717     3.5479 C.ar    
  39 C39          -12.5750    13.2792     2.6078 C.ar    
  40 C40          -15.2711    11.1964    -1.3503 C.ar    
  41 C41          -15.6750    11.3269    -2.6779 C.ar    
  42 C42          -15.0963    10.5867    -3.6624 C.ar    
  43 C43          -14.0754     9.6766    -3.3392 C.ar    
  44 C44          -13.6610     9.5477    -1.9901 C.ar    
  45 C45          -13.4541     8.8951    -4.3284 C.ar    
  46 C46          -12.4689     8.0241    -3.9782 C.ar    
  47 C47          -12.0650     7.8935    -2.6507 C.ar    
  48 C48          -12.6401     8.6375    -1.6669 C.ar    
  49 C49          -12.7356    14.2682     4.8287 C.ar    
  50 C50          -11.5404    13.7004     5.1470 C.ar    
  51 C51          -10.8448    12.9254     4.2207 C.ar    
  52 C52          -11.3434    12.7091     2.9729 C.ar    
  53 C53           -7.2164     0.4644     9.4236 C.ar    
  54 C54           -7.7623     0.8546    10.6078 C.ar    
  55 C55           -8.1402     2.1788    10.8227 C.ar    
  56 C56           -7.9742     3.1202     9.8542 C.ar    
  57 H57            1.1234     0.4104     4.9149 H       
  58 H58           -0.2537     1.1080     5.5779 H       
  59 H59           -1.4905     2.9568     5.3026 H       
  60 H60           -2.3964     1.4492     5.0290 H       
  61 H61           -1.4894     2.4081     2.5321 H       
  62 H62            1.5006     0.6041     2.6342 H       
  63 H63           -4.1115     3.2691     5.9702 H       
  64 H64           -8.4824     5.0502     5.4196 H       
  65 H65           -5.9404     6.8783     2.4869 H       
  66 H66           -4.0918     5.4145     3.1676 H       
  67 H67           -7.3696     7.9730     2.1346 H       
  68 H68           -8.1315    10.2956     1.5300 H       
  69 H69          -10.7758     7.0592     2.4337 H       
  70 H70          -12.6771     8.3792     1.5987 H       
  71 H71          -10.0332    11.6175     0.6990 H       
  72 H72          -11.3189    12.5017     0.3347 H       
  73 H73          -12.7770    12.4565    -0.6852 H       
  74 H74          -13.7970     9.1443     0.7090 H       
  75 H75          -14.5982    10.6900     1.0793 H       
  76 H76           -5.8659     1.6730     5.2430 H       
  77 H77           -6.1734     0.0114     6.9911 H       
  78 H78           -7.5119     4.7307     7.7517 H       
  79 H79          -14.7273    13.5025     0.0218 H       
  80 H80          -15.9538    14.8692     1.6551 H       
  81 H81          -15.0609    15.2454     3.8898 H       
  82 H82          -15.7470    11.7955    -0.5882 H       
  83 H83          -16.4593    12.0256    -2.9290 H       
  84 H84          -15.4201    10.6979    -4.6867 H       
  85 H85          -13.7572     8.9852    -5.3611 H       
  86 H86          -11.9931     7.4247    -4.7403 H       
  87 H87          -11.2812     7.1942    -2.3995 H       
  88 H88          -12.3167     8.5259    -0.6425 H       
  89 H89          -13.2631    14.8669     5.5565 H       
  90 H90          -11.1246    13.8530     6.1320 H       
  91 H91           -9.8979    12.4867     4.4985 H       
  92 H92          -10.7934    12.1060     2.2657 H       
  93 H93           -6.9289    -0.5655     9.2720 H       
  94 H94           -7.9051     0.1268    11.3929 H       
  95 H95           -8.5710     2.4619    11.7718 H       
  96 H96           -8.2712     4.1428    10.0347 H       
@<TRIPOS>BOND
   1    1    2 1
   2    1    7 2
   3    1    6 1
   4    2   57 1
   5    2   58 1
   6    3    4 2
   7    4    5 1
   8    4    8 am
   9    5    6 1
  10    5   59 1
  11    5   60 1
  12    6   61 1
  13    7   62 1
  14    8    9 1
  15    8   63 1
  16    9   10 ar
  17    9   14 ar
  18   10   11 ar
  19   10   27 1
  20   11   12 ar
  21   11   64 1
  22   12   13 ar
  23   12   15 1
  24   13   14 ar
  25   13   65 1
  26   14   66 1
  27   15   16 am
  28   15   17 2
  29   16   18 1
  30   16   67 1
  31   18   19 ar
  32   18   20 ar
  33   19   23 ar
  34   19   68 1
  35   20   21 ar
  36   20   69 1
  37   21   22 ar
  38   21   70 1
  39   22   23 ar
  40   22   24 1
  41   23   71 1
  42   24   25 1
  43   24   26 1
  44   25   34 1
  45   25   72 1
  46   25   73 1
  47   26   33 1
  48   26   74 1
  49   26   75 1
  50   27   28 ar
  51   27   32 ar
  52   28   29 ar
  53   28   76 1
  54   29   30 ar
  55   29   77 1
  56   30   31 ar
  57   30   53 ar
  58   31   32 ar
  59   31   56 ar
  60   32   78 1
  61   33   40 ar
  62   33   44 ar
  63   34   35 ar
  64   34   39 ar
  65   35   36 ar
  66   35   79 1
  67   36   37 ar
  68   36   80 1
  69   37   38 ar
  70   37   81 1
  71   38   39 ar
  72   38   49 ar
  73   39   52 ar
  74   40   41 ar
  75   40   82 1
  76   41   42 ar
  77   41   83 1
  78   42   43 ar
  79   42   84 1
  80   43   44 ar
  81   43   45 ar
  82   44   48 ar
  83   45   46 ar
  84   45   85 1
  85   46   47 ar
  86   46   86 1
  87   47   48 ar
  88   47   87 1
  89   48   88 1
  90   49   50 ar
  91   49   89 1
  92   50   51 ar
  93   50   90 1
  94   51   52 ar
  95   51   91 1
  96   52   92 1
  97   53   54 ar
  98   53   93 1
  99   54   55 ar
 100   54   94 1
 101   55   56 ar
 102   55   95 1
 103   56   96 1

#	End of record

