#	Name: ASD03910002
#	Creating user name:	WinNT
#	Creation time:	15. 06. 2019 20:47

#	Modifying user name:	WinNT
#	Modification time:	15. 06. 2019 20:47

#	Program:	/corina/corina34_cracker 3.40 0067  02.08.2006

@<TRIPOS>MOLECULE
ASD03910002
  42   43    0    0    0
SMALL
NO_CHARGES


@<TRIPOS>ATOM
   1 C1            -1.0478    -0.4606    -0.7540 C.ar    
   2 C2             0.0012    -0.0061     0.0241 C.ar    
   3 C3            -0.1545     1.1214     0.8094 C.ar    
   4 C4            -1.3591     1.7969     0.8192 C.ar    
   5 C5            -2.4145     1.3430     0.0390 C.ar    
   6 C6            -2.2529     0.2140    -0.7533 C.ar    
   7 N7            -3.6362     2.0252     0.0467 N.am    
   8 C8             0.9912     1.6133     1.6558 C.3     
   9 C9            -3.6573     3.3683     0.1559 C.2     
  10 C10           -4.9646     4.1117     0.0587 C.3     
  11 O11           -2.6243     3.9788     0.3323 O.2     
  12 C12           -4.7146     5.5899     0.2121 C.ar    
  13 C13           -4.4559     6.3654    -0.9030 C.ar    
  14 C14           -4.2264     7.7207    -0.7650 C.ar    
  15 C15           -4.2555     8.3034     0.4936 C.ar    
  16 C16           -4.5153     7.5230     1.6109 C.ar    
  17 C17           -4.7498     6.1692     1.4670 C.ar    
  18 O18           -4.0296     9.6363     0.6320 O.3     
  19 C19           -4.0751    10.1679     1.9576 C.3     
  20 C20           -3.8030    11.6495     1.9144 C.2     
  21 O21           -3.5916    12.1943     0.8568 O.2     
  22 O22           -3.7953    12.3639     3.0507 O.3     
  23 C23           -0.8737    -1.6898    -1.6083 C.3     
  24 H24            0.9439    -0.5330     0.0187 H       
  25 H25           -1.4804     2.6771     1.4333 H       
  26 H26           -3.0716    -0.1413    -1.3615 H       
  27 H27           -4.4678     1.5314    -0.0265 H       
  28 H28            1.5908     2.3190     1.0809 H       
  29 H29            0.6000     2.1084     2.5445 H       
  30 H30            1.6116     0.7681     1.9541 H       
  31 H31           -5.4208     3.9192    -0.9123 H       
  32 H32           -5.6349     3.7727     0.8486 H       
  33 H33           -4.4330     5.9113    -1.8826 H       
  34 H34           -4.0240     8.3260    -1.6363 H       
  35 H35           -4.5385     7.9743     2.5918 H       
  36 H36           -4.9520     5.5613     2.3365 H       
  37 H37           -5.0620     9.9921     2.3859 H       
  38 H38           -3.3199     9.6775     2.5719 H       
  39 H39           -3.6159    13.3109     2.9727 H       
  40 H40           -1.1551    -2.5733    -1.0354 H       
  41 H41           -1.5086    -1.6117    -2.4909 H       
  42 H42            0.1685    -1.7734    -1.9167 H       
@<TRIPOS>BOND
   1    1    2 ar
   2    1   23 1
   3    1    6 ar
   4    2    3 ar
   5    2   24 1
   6    3    4 ar
   7    3    8 1
   8    4    5 ar
   9    4   25 1
  10    5    6 ar
  11    5    7 1
  12    6   26 1
  13    7    9 am
  14    7   27 1
  15    8   28 1
  16    8   29 1
  17    8   30 1
  18    9   10 1
  19    9   11 2
  20   10   12 1
  21   10   31 1
  22   10   32 1
  23   12   13 ar
  24   12   17 ar
  25   13   14 ar
  26   13   33 1
  27   14   15 ar
  28   14   34 1
  29   15   16 ar
  30   15   18 1
  31   16   17 ar
  32   16   35 1
  33   17   36 1
  34   18   19 1
  35   19   20 1
  36   19   37 1
  37   19   38 1
  38   20   21 2
  39   20   22 1
  40   22   39 1
  41   23   40 1
  42   23   41 1
  43   23   42 1

#	End of record

