#	Name: ASD01350010
#	Creating user name:	WinNT
#	Creation time:	15. 06. 2019 19:16

#	Modifying user name:	WinNT
#	Modification time:	15. 06. 2019 19:16

#	Program:	/corina/corina34_cracker 3.40 0067  02.08.2006

@<TRIPOS>MOLECULE
ASD01350010
  73   77    0    0    0
SMALL
NO_CHARGES


@<TRIPOS>ATOM
   1 C1            -0.0332     1.6251     0.2493 C.3     
   2 C2            -0.5098     2.7058     1.1370 C.ar    
   3 C3            -1.5780     3.4805     0.9796 C.ar    
   4 C4            -2.7245     3.4338    -0.0080 C.3     
   5 C5            -2.3194     3.2140    -1.4319 C.3     
   6 C6            -1.6127     1.9020    -1.6972 C.ar    
   7 C7            -0.6305     1.2769    -1.0567 C.ar    
   8 C8            -2.1483     1.3035    -2.8621 C.ar    
   9 C9            -1.6451     0.1381    -3.3771 C.ar    
  10 C10           -0.5700    -0.4656    -2.7495 C.ar    
  11 C11           -0.0698     0.1036    -1.6059 C.ar    
  12 C12            0.3253     2.8844     2.2610 C.ar    
  13 C13            0.1029     3.8857     3.1717 C.ar    
  14 C14           -0.9618     4.7454     2.9678 C.ar    
  15 C15           -1.7820     4.5452     1.8888 C.ar    
  16 O16            1.3482     1.8923    -0.0007 O.3     
  17 C17            1.5832     3.0891    -0.7453 C.3     
  18 C18            2.6856     3.9048    -0.0638 C.3     
  19 C19            3.0319     5.1116    -0.9505 C.3     
  20 N20            3.5937     4.5788    -2.2203 N.3     
  21 C21            2.4058     4.0132    -2.9135 C.3     
  22 C22            2.0138     2.7266    -2.1695 C.3     
  23 C23            1.2917     5.0575    -2.6715 C.3     
  24 C24            1.7054     5.7833    -1.3743 C.3     
  25 C25            4.2064     5.6511    -3.0157 C.3     
  26 C26            4.9857     5.0395    -4.1817 C.3     
  27 C27            5.6239     6.1563    -5.0102 C.3     
  28 C28            6.4033     5.5446    -6.1761 C.3     
  29 C29            7.0415     6.6614    -7.0046 C.3     
  30 C30            7.8208     6.0498    -8.1706 C.3     
  31 C31            8.4590     7.1666    -8.9991 C.3     
  32 C32            9.2383     6.5550   -10.1650 C.3     
  33 H33           -0.0486     0.7120     0.8444 H       
  34 H34           -3.3994     2.6299     0.2859 H       
  35 H35           -3.2701     4.3754     0.0533 H       
  36 H36           -3.2132     3.2554    -2.0544 H       
  37 H37           -1.6586     4.0275    -1.7313 H       
  38 H38           -2.9797     1.7799    -3.3603 H       
  39 H39           -2.0812    -0.3031    -4.2611 H       
  40 H40           -0.1332    -1.3676    -3.1518 H       
  41 H41            0.7736    -0.3575    -1.1135 H       
  42 H42            1.1604     2.2154     2.4078 H       
  43 H43            0.7462     4.0006     4.0315 H       
  44 H44           -1.1440     5.5627     3.6499 H       
  45 H45           -2.6092     5.2206     1.7273 H       
  46 H46            0.6670     3.6783    -0.7833 H       
  47 H47            2.3341     4.2541     0.9071 H       
  48 H48            3.5710     3.2830     0.0687 H       
  49 H49            3.7143     5.8025    -0.4554 H       
  50 H50            2.5925     3.8344    -3.9724 H       
  51 H51            2.8690     2.0518    -2.1317 H       
  52 H52            1.1869     2.2421    -2.6887 H       
  53 H53            1.2451     5.7619    -3.5019 H       
  54 H54            0.3298     4.5622    -2.5387 H       
  55 H55            0.9470     5.6448    -0.6037 H       
  56 H56            1.8622     6.8446    -1.5670 H       
  57 H57            3.4267     6.3065    -3.4039 H       
  58 H58            4.8856     6.2270    -2.3871 H       
  59 H59            5.7654     4.3841    -3.7935 H       
  60 H60            4.3066     4.4635    -4.8103 H       
  61 H61            4.8443     6.8116    -5.3983 H       
  62 H62            6.3031     6.7322    -4.3816 H       
  63 H63            7.1829     4.8893    -5.7880 H       
  64 H64            5.7241     4.9687    -6.8047 H       
  65 H65            6.2618     7.3168    -7.3928 H       
  66 H66            7.7206     7.2374    -6.3760 H       
  67 H67            8.6005     5.3944    -7.7824 H       
  68 H68            7.1416     5.4739    -8.7992 H       
  69 H69            7.6793     7.8220    -9.3872 H       
  70 H70            9.1381     7.7426    -8.3705 H       
  71 H71            9.6930     7.3506   -10.7553 H       
  72 H72           10.0180     5.8996    -9.7769 H       
  73 H73            8.5591     5.9790   -10.7936 H       
@<TRIPOS>BOND
   1    1    2 1
   2    1   16 1
   3    1    7 1
   4    1   33 1
   5    2    3 ar
   6    2   12 ar
   7    3    4 1
   8    3   15 ar
   9    4    5 1
  10    4   34 1
  11    4   35 1
  12    5    6 1
  13    5   36 1
  14    5   37 1
  15    6    7 ar
  16    6    8 ar
  17    7   11 ar
  18    8    9 ar
  19    8   38 1
  20    9   10 ar
  21    9   39 1
  22   10   11 ar
  23   10   40 1
  24   11   41 1
  25   12   13 ar
  26   12   42 1
  27   13   14 ar
  28   13   43 1
  29   14   15 ar
  30   14   44 1
  31   15   45 1
  32   16   17 1
  33   17   18 1
  34   17   22 1
  35   17   46 1
  36   18   19 1
  37   18   47 1
  38   18   48 1
  39   19   20 1
  40   19   24 1
  41   19   49 1
  42   20   21 1
  43   20   25 1
  44   21   22 1
  45   21   23 1
  46   21   50 1
  47   22   51 1
  48   22   52 1
  49   23   24 1
  50   23   53 1
  51   23   54 1
  52   24   55 1
  53   24   56 1
  54   25   26 1
  55   25   57 1
  56   25   58 1
  57   26   27 1
  58   26   59 1
  59   26   60 1
  60   27   28 1
  61   27   61 1
  62   27   62 1
  63   28   29 1
  64   28   63 1
  65   28   64 1
  66   29   30 1
  67   29   65 1
  68   29   66 1
  69   30   31 1
  70   30   67 1
  71   30   68 1
  72   31   32 1
  73   31   69 1
  74   31   70 1
  75   32   71 1
  76   32   72 1
  77   32   73 1

#	End of record

