#	Name: ASD03240956
#	Creating user name:	WinNT
#	Creation time:	15. 06. 2019 20:35

#	Modifying user name:	WinNT
#	Modification time:	15. 06. 2019 20:35

#	Program:	/corina/corina34_cracker 3.40 0067  02.08.2006

@<TRIPOS>MOLECULE
ASD03240956
  58   64    0    0    0
SMALL
NO_CHARGES


@<TRIPOS>ATOM
   1 C1            -0.1939     0.3077     1.5786 C.3     
   2 C2             0.1490    -1.1891     1.4972 C.3     
   3 C3             1.5682    -0.8082     1.9507 C.3     
   4 C4             1.3018     0.5824     1.3505 C.3     
   5 O5            -1.0287     0.7626     0.5117 O.3     
   6 C6             2.6547    -1.5741     1.2407 C.ar    
   7 C7             3.8487    -1.8363     1.8886 C.ar    
   8 C8             4.8471    -2.5374     1.2442 C.ar    
   9 C9             4.6507    -2.9821    -0.0634 C.ar    
  10 C10            3.4445    -2.7146    -0.7112 C.ar    
  11 C11            2.4518    -2.0171    -0.0542 C.ar    
  12 N12            6.0984    -6.6547    -2.7778 N.pl3   
  13 C13            7.1108    -7.3258    -3.4097 C.2     
  14 N14            8.3848    -6.9012    -3.3592 N.2     
  15 C15            8.7339    -5.8245    -2.7054 C.2     
  16 C16            7.7076    -5.0523    -2.0034 C.ar    
  17 N17            8.0112    -3.9500    -1.3233 N.ar    
  18 C18            7.0527    -3.2800    -0.7012 C.ar    
  19 C19            5.7182    -3.7346    -0.7609 C.ar    
  20 N20            5.4164    -4.8347    -1.4398 N.ar    
  21 C21            6.3722    -5.5063    -2.0619 C.ar    
  22 C22            6.5339    -8.4230    -4.0354 C.2     
  23 C23            5.1712    -8.3942    -3.7677 C.2     
  24 N24            4.9075    -7.3508    -3.0181 N.2     
  25 C25            7.3824    -2.0512     0.0586 C.ar    
  26 C26            8.4809    -2.0328     0.9173 C.ar    
  27 C27            8.7829    -0.8856     1.6222 C.ar    
  28 C28            7.9984     0.2447     1.4783 C.ar    
  29 C29            6.9071     0.2323     0.6282 C.ar    
  30 C30            6.5988    -0.9071    -0.0867 C.ar    
  31 C31           -0.6948     0.7477     2.9557 C.3     
  32 C32           -0.9154     2.2447     3.1821 C.3     
  33 C33           -2.1163     1.3067     3.0451 C.3     
  34 N34            1.7366    -0.7969     3.4099 N.3     
  35 H35           -0.3909    -1.8007     2.2201 H       
  36 H36            0.1073    -1.5922     0.4854 H       
  37 H37            1.5754     0.6636     0.2985 H       
  38 H38            1.6926     1.4009     1.9549 H       
  39 H39           -0.7134     0.5137    -0.3679 H       
  40 H40            3.9997    -1.4911     2.9008 H       
  41 H41            5.7789    -2.7411     1.7508 H       
  42 H42            3.2865    -3.0563    -1.7235 H       
  43 H43            1.5159    -1.8132    -0.5530 H       
  44 H44            9.7665    -5.5089    -2.6831 H       
  45 H45            7.0516    -9.1653    -4.6248 H       
  46 H46            4.4473    -9.1156    -4.1167 H       
  47 H47            9.0938    -2.9147     1.0307 H       
  48 H48            9.6332    -0.8703     2.2879 H       
  49 H49            8.2386     1.1402     2.0320 H       
  50 H50            6.2978     1.1175     0.5204 H       
  51 H51            5.7496    -0.9140    -0.7540 H       
  52 H52           -0.3311     0.1596     3.7983 H       
  53 H53           -0.6971     2.6414     4.1736 H       
  54 H54           -0.7037     2.9161     2.3499 H       
  55 H55           -2.6946     1.3609     2.1227 H       
  56 H56           -2.6881     1.0861     3.9464 H       
  57 H57            2.7095    -0.7051     3.6610 H       
  58 H58            1.1837    -0.0661     3.8321 H       
@<TRIPOS>BOND
   1    1    2 1
   2    1    4 1
   3    1    5 1
   4    1   31 1
   5    2    3 1
   6    2   35 1
   7    2   36 1
   8    3    4 1
   9    3    6 1
  10    3   34 1
  11    4   37 1
  12    4   38 1
  13    5   39 1
  14    6    7 ar
  15    6   11 ar
  16    7    8 ar
  17    7   40 1
  18    8    9 ar
  19    8   41 1
  20    9   10 ar
  21    9   19 1
  22   10   11 ar
  23   10   42 1
  24   11   43 1
  25   12   13 1
  26   12   21 1
  27   12   24 1
  28   13   14 1
  29   13   22 2
  30   14   15 2
  31   15   16 1
  32   15   44 1
  33   16   17 ar
  34   16   21 ar
  35   17   18 ar
  36   18   19 ar
  37   18   25 1
  38   19   20 ar
  39   20   21 ar
  40   22   23 1
  41   22   45 1
  42   23   24 2
  43   23   46 1
  44   25   26 ar
  45   25   30 ar
  46   26   27 ar
  47   26   47 1
  48   27   28 ar
  49   27   48 1
  50   28   29 ar
  51   28   49 1
  52   29   30 ar
  53   29   50 1
  54   30   51 1
  55   31   32 1
  56   31   33 1
  57   31   52 1
  58   32   33 1
  59   32   53 1
  60   32   54 1
  61   33   55 1
  62   33   56 1
  63   34   57 1
  64   34   58 1

#	End of record

