#	Name: ASD01884835
#	Creating user name:	WinNT
#	Creation time:	15. 06. 2019 19:48

#	Modifying user name:	WinNT
#	Modification time:	15. 06. 2019 19:48

#	Program:	/corina/corina34_cracker 3.40 0067  02.08.2006

@<TRIPOS>MOLECULE
ASD01884835
  54   57    0    0    0
SMALL
NO_CHARGES


@<TRIPOS>ATOM
   1 C1             0.7074     1.1808    -0.3201 C.3     
   2 C2             0.5040    -0.3318    -0.2130 C.3     
   3 O3             1.0994    -0.8082     0.9955 O.3     
   4 C4             0.9651    -2.2170     1.1936 C.3     
   5 C5             1.6254    -2.6071     2.4909 C.2     
   6 N6             2.8752    -2.9603     2.6470 N.2     
   7 N7             3.1118    -3.2292     3.8829 N.2     
   8 C8             2.0073    -3.0587     4.5910 C.2     
   9 C9             1.6998    -3.2070     5.9571 C.2     
  10 C10            0.4350    -2.9477     6.3852 C.2     
  11 C11           -0.5429    -2.5373     5.4630 C.2     
  12 C12           -0.2336    -2.3995     4.1566 C.2     
  13 N13            1.0319    -2.6504     3.7145 N.pl3   
  14 C14            0.0836    -3.1002     7.8427 C.3     
  15 C15           -0.5276    -1.7877     8.3999 C.3     
  16 C16           -1.3947    -2.3179     9.5690 C.3     
  17 N17           -1.9487    -3.5977     9.0779 N.3     
  18 C18           -1.0597    -4.1207     8.0243 C.3     
  19 C19           -2.0832    -4.5092    10.1114 C.ar    
  20 N20           -1.4266    -5.6576    10.0488 N.ar    
  21 C21           -1.5301    -6.5542    11.0187 C.ar    
  22 C22           -2.3363    -6.2809    12.1082 C.ar    
  23 Cl23          -2.4999    -7.4275    13.4014 Cl      
  24 C24           -3.0150    -5.0624    12.1449 C.ar    
  25 O25           -3.8160    -4.7531    13.1936 O.3     
  26 C26           -4.4753    -3.4859    13.1547 C.3     
  27 C27           -5.3282    -3.3160    14.4135 C.3     
  28 N28           -2.8613    -4.2085    11.1406 N.ar    
  29 C29            2.7596    -3.6483     6.9335 C.3     
  30 F30            2.3627    -4.8428     7.5442 F       
  31 F31            3.9652    -3.8505     6.2532 F       
  32 F32            2.9346    -2.6613     7.9094 F       
  33 H33            1.7743     1.4043    -0.3280 H       
  34 H34            0.2533     1.5442    -1.2419 H       
  35 H35            0.2398     1.6717     0.5335 H       
  36 H36           -0.5629    -0.5552    -0.2051 H       
  37 H37            0.9716    -0.8226    -1.0665 H       
  38 H38           -0.0921    -2.4795     1.2307 H       
  39 H39            1.4423    -2.7469     0.3693 H       
  40 H40           -1.5476    -2.3315     5.8016 H       
  41 H41           -0.9930    -2.0836     3.4566 H       
  42 H42            0.9596    -3.3961     8.4200 H       
  43 H43            0.2514    -1.1180     8.7641 H       
  44 H44           -1.1445    -1.2946     7.6487 H       
  45 H45           -0.7788    -2.4852    10.4526 H       
  46 H46           -2.1990    -1.6173     9.7930 H       
  47 H47           -1.6131    -4.2274     7.0914 H       
  48 H48           -0.6516    -5.0846     8.3283 H       
  49 H49           -0.9911    -7.4882    10.9588 H       
  50 H50           -3.7313    -2.6905    13.1098 H       
  51 H51           -5.1145    -3.4358    12.2732 H       
  52 H52           -6.0721    -4.1114    14.4584 H       
  53 H53           -4.6890    -3.3661    15.2950 H       
  54 H54           -5.8311    -2.3494    14.3839 H       
@<TRIPOS>BOND
   1    1    2 1
   2    1   33 1
   3    1   34 1
   4    1   35 1
   5    2    3 1
   6    2   36 1
   7    2   37 1
   8    3    4 1
   9    4    5 1
  10    4   38 1
  11    4   39 1
  12    5   13 1
  13    5    6 2
  14    6    7 1
  15    7    8 2
  16    8   13 1
  17    8    9 1
  18    9   10 2
  19    9   29 1
  20   10   11 1
  21   10   14 1
  22   11   12 2
  23   11   40 1
  24   12   13 1
  25   12   41 1
  26   14   18 1
  27   14   15 1
  28   14   42 1
  29   15   16 1
  30   15   43 1
  31   15   44 1
  32   16   17 1
  33   16   45 1
  34   16   46 1
  35   17   18 1
  36   17   19 1
  37   18   47 1
  38   18   48 1
  39   19   28 ar
  40   19   20 ar
  41   20   21 ar
  42   21   22 ar
  43   21   49 1
  44   22   23 1
  45   22   24 ar
  46   24   25 1
  47   24   28 ar
  48   25   26 1
  49   26   27 1
  50   26   50 1
  51   26   51 1
  52   27   52 1
  53   27   53 1
  54   27   54 1
  55   29   30 1
  56   29   31 1
  57   29   32 1

#	End of record

