#	Name: ASD00460021
#	Creating user name:	WinNT
#	Creation time:	15. 06. 2019 18:36

#	Modifying user name:	WinNT
#	Modification time:	15. 06. 2019 18:36

#	Program:	/corina/corina34_cracker 3.40 0067  02.08.2006

@<TRIPOS>MOLECULE
ASD00460021
 144  143    0    0    0
SMALL
NO_CHARGES


@<TRIPOS>ATOM
   1 S1             0.6175    -0.2684     0.8463 S.3     
   2 S2             0.6198    -2.3178     0.7967 S.3     
   3 O3            12.9991    -3.6285     5.1945 O.2     
   4 O4            11.1864    -2.0881     1.2300 O.2     
   5 O5            17.0806    -5.4304     3.9819 O.2     
   6 O6             6.6180    -2.1591     1.9376 O.2     
   7 O7            19.6635    -5.1305     7.8047 O.2     
   8 O8            20.8432    -7.9427     9.1291 O.2     
   9 O9             4.9480     1.0528    -0.9383 O.2     
  10 O10            3.1212     2.5016    -0.5157 O.2     
  11 O11           -0.5399    -4.0718     5.1208 O.3     
  12 O12           -0.1214    -1.9467     5.5594 O.2     
  13 N13           11.4320    -3.1958     3.1365 N.am    
  14 N14           14.9055    -3.9707     4.1128 N.am    
  15 N15            8.6583    -1.4295     1.4613 N.am    
  16 N16           17.6674    -5.3706     6.1206 N.am    
  17 N17           21.0639    -6.5899     6.8931 N.am    
  18 N18            5.2840    -0.8972     0.0651 N.am    
  19 N19           11.7732    -5.4588    -1.5560 N.2     
  20 N20           14.0917     0.1133     7.2617 N.2     
  21 N21            6.1511    -0.2422     5.8841 N.2     
  22 N22            2.3888     0.6744    -1.5390 N.am    
  23 N23           22.5985    -7.1191    10.2073 N.am    
  24 N24           25.5070    -5.1293     4.5733 N.2     
  25 N25           13.8717    -5.5374    -2.5415 N.pl3   
  26 N26           11.9045    -5.3403    -3.8690 N.pl3   
  27 N27           14.8638     0.2027     9.4474 N.pl3   
  28 N28           12.7309     1.0887     8.8673 N.pl3   
  29 N29            6.4600    -1.6579     7.6955 N.pl3   
  30 N30            4.3902    -0.5272     7.3671 N.pl3   
  31 N31           27.3053    -4.3342     5.8041 N.pl3   
  32 N32           26.7258    -3.3527     3.7133 N.pl3   
  33 N33           -0.7686    -0.9794     3.1721 N.3     
  34 C34           12.8403    -3.4747     2.8449 C.3     
  35 C35           12.9424    -4.7290     1.9748 C.3     
  36 C36           15.6306    -4.1864     5.3674 C.3     
  37 C37            9.2403    -2.2044     2.5600 C.3     
  38 C38           16.0699    -2.8377     5.9409 C.3     
  39 C39           13.5861    -3.6966     4.1355 C.2     
  40 C40            9.1375    -1.4034     3.8595 C.3     
  41 C41           12.2930    -4.4611     0.6156 C.3     
  42 C42           10.6891    -2.4913     2.2600 C.2     
  43 C43           14.8349    -2.0192     6.3227 C.3     
  44 C44            7.6644    -1.2194     4.2299 C.3     
  45 C45           16.8444    -5.0403     5.1057 C.2     
  46 C46           12.3950    -5.7154    -0.2545 C.3     
  47 C47           18.8474    -6.2008     5.8662 C.3     
  48 C48           15.2742    -0.6705     6.8962 C.3     
  49 C49            7.5615    -0.4184     5.5294 C.3     
  50 C50            7.3308    -1.4759     1.2333 C.2     
  51 C51            6.7321    -0.6788     0.1031 C.3     
  52 C52           22.0741    -6.3310     7.9220 C.3     
  53 C53           19.8866    -5.9345     6.9246 C.2     
  54 C54           23.4614    -6.6652     7.3701 C.3     
  55 C55           18.4494    -7.6777     5.9024 C.3     
  56 C56            7.3507    -1.1287    -1.2220 C.3     
  57 C57           23.7977    -5.7099     6.2233 C.3     
  58 C58           21.7935    -7.1891     9.1286 C.2     
  59 C59            4.4762     0.0340    -0.4796 C.2     
  60 C60            2.9865    -0.1906    -0.5188 C.3     
  61 C61           25.1850    -6.0440     5.6714 C.3     
  62 C62           12.5031    -5.4457    -2.6358 C.2     
  63 C63            2.3845     0.1417     0.8480 C.3     
  64 C64           13.8990     0.4619     8.5028 C.2     
  65 C65            5.6758    -0.7990     6.9625 C.2     
  66 C66            2.5139     2.0131    -1.4449 C.2     
  67 C67           26.4947    -4.2874     4.6947 C.2     
  68 C68            1.8991     2.9029    -2.4943 C.3     
  69 C69            0.7825    -2.7682     2.5463 C.3     
  70 C70           -0.5119    -2.4214     3.2847 C.3     
  71 C71           -0.3767    -2.7956     4.7383 C.2     
  72 H72           13.2761    -2.6281     2.3144 H       
  73 H73           13.9915    -4.9875     1.8315 H       
  74 H74           12.4285    -5.5550     2.4664 H       
  75 H75           14.9791    -4.6900     6.0815 H       
  76 H76            8.6988    -3.1441     2.6685 H       
  77 H77           16.6846    -3.0021     6.8259 H       
  78 H78           16.6480    -2.2956     5.1926 H       
  79 H79           11.0342    -3.5183     3.9603 H       
  80 H80            9.6487    -1.9402     4.6586 H       
  81 H81            9.6023    -0.4271     3.7223 H       
  82 H82           15.3751    -4.0251     3.2657 H       
  83 H83           11.2438    -4.2026     0.7588 H       
  84 H84           12.8068    -3.6350     0.1239 H       
  85 H85           14.2202    -1.8548     5.4377 H       
  86 H86           14.2568    -2.5613     7.0710 H       
  87 H87            7.1532    -0.6826     3.4308 H       
  88 H88            7.1996    -2.1957     4.3671 H       
  89 H89            9.2284    -0.8831     0.8980 H       
  90 H90           11.8811    -6.5414     0.2371 H       
  91 H91           13.4442    -5.9739    -0.3978 H       
  92 H92           19.2573    -5.9589     4.8856 H       
  93 H93           17.4785    -5.0587     7.0194 H       
  94 H94           15.8523    -0.1284     6.1478 H       
  95 H95           15.8889    -0.8349     7.7812 H       
  96 H96            8.0264     0.5579     5.3922 H       
  97 H97            8.0728    -0.9552     6.3285 H       
  98 H98            6.9358     0.3807     0.2580 H       
  99 H99           22.0403    -5.2798     8.2080 H       
 100 H100          24.2029    -6.5577     8.1618 H       
 101 H101          23.4687    -7.6912     7.0023 H       
 102 H102          19.3273    -8.2953     5.7131 H       
 103 H103          18.0395    -7.9196     6.8830 H       
 104 H104          17.6977    -7.8703     5.1369 H       
 105 H105          21.2423    -7.2330     6.1892 H       
 106 H106           4.9066    -1.7120     0.4319 H       
 107 H107           7.1470    -2.1882    -1.3769 H       
 108 H108           6.9177    -0.5521    -2.0394 H       
 109 H109           8.4282    -0.9662    -1.1936 H       
 110 H110          23.0562    -5.8173     5.4316 H       
 111 H111          23.7904    -4.6838     6.5911 H       
 112 H112           2.7826    -1.2334    -0.7618 H       
 113 H113          25.1923    -7.0700     5.3035 H       
 114 H114          25.9265    -5.9366     6.4630 H       
 115 H115           2.5105     1.2051     1.0517 H       
 116 H116           2.8914    -0.4385     1.6191 H       
 117 H117           1.9031     0.2837    -2.2822 H       
 118 H118          22.4179    -7.6714    10.9840 H       
 119 H119          23.3585    -6.5164    10.2069 H       
 120 H120          10.9390    -5.2756    -3.9355 H       
 121 H121          12.4478    -5.3305    -4.6725 H       
 122 H122          14.3023    -5.4898    -1.6737 H       
 123 H123          14.4066    -5.6496    -3.3429 H       
 124 H124          12.0502     1.2715     8.2009 H       
 125 H125          12.5875     1.3481     9.7909 H       
 126 H126          15.7331    -0.1297     9.1741 H       
 127 H127          14.6751     0.3523    10.3870 H       
 128 H128           7.3197    -1.9446     7.3495 H       
 129 H129           6.1537    -1.9773     8.5587 H       
 130 H130           3.8369     0.0788     6.8499 H       
 131 H131           4.0365    -0.9415     8.1696 H       
 132 H132           2.6206     3.0745    -3.2932 H       
 133 H133           1.0111     2.4215    -2.9040 H       
 134 H134           1.6210     3.8562    -2.0449 H       
 135 H135           0.9730    -3.8381     2.6299 H       
 136 H136           1.6119    -2.2159     2.9881 H       
 137 H137          27.0968    -4.9404     6.5320 H       
 138 H138          28.0859    -3.7609     5.8590 H       
 139 H139          26.1538    -3.3197     2.9306 H       
 140 H140          27.4608    -2.7262     3.8037 H       
 141 H141          -1.3413    -2.9737     2.8430 H       
 142 H142          -1.6508    -0.7349     3.5964 H       
 143 H143          -0.0133    -0.4451     3.5748 H       
 144 H144          -0.4436    -4.2633     6.0637 H       
@<TRIPOS>BOND
   1    1    2 1
   2    1   63 1
   3    2   69 1
   4    3   39 2
   5    4   42 2
   6    5   45 2
   7    6   50 2
   8    7   53 2
   9    8   58 2
  10    9   59 2
  11   10   66 2
  12   11   71 1
  13   11  144 1
  14   12   71 2
  15   13   42 am
  16   13   79 1
  17   13   34 1
  18   14   39 am
  19   14   82 1
  20   14   36 1
  21   15   50 am
  22   15   89 1
  23   15   37 1
  24   16   45 am
  25   16   93 1
  26   16   47 1
  27   17   53 am
  28   17  105 1
  29   17   52 1
  30   18   59 am
  31   18  106 1
  32   18   51 1
  33   19   46 1
  34   19   62 2
  35   20   48 1
  36   20   64 2
  37   21   49 1
  38   21   65 2
  39   22   66 am
  40   22  117 1
  41   22   60 1
  42   23   58 am
  43   23  118 1
  44   23  119 1
  45   24   61 1
  46   24   67 2
  47   25   62 1
  48   25  122 1
  49   25  123 1
  50   26   62 1
  51   26  120 1
  52   26  121 1
  53   27   64 1
  54   27  126 1
  55   27  127 1
  56   28   64 1
  57   28  124 1
  58   28  125 1
  59   29   65 1
  60   29  128 1
  61   29  129 1
  62   30   65 1
  63   30  130 1
  64   30  131 1
  65   31   67 1
  66   31  137 1
  67   31  138 1
  68   32   67 1
  69   32  139 1
  70   32  140 1
  71   33  142 1
  72   33  143 1
  73   33   70 1
  74   34   35 1
  75   34   39 1
  76   34   72 1
  77   35   41 1
  78   35   73 1
  79   35   74 1
  80   36   38 1
  81   36   45 1
  82   36   75 1
  83   37   40 1
  84   37   42 1
  85   37   76 1
  86   38   43 1
  87   38   77 1
  88   38   78 1
  89   40   44 1
  90   40   80 1
  91   40   81 1
  92   41   46 1
  93   41   83 1
  94   41   84 1
  95   43   48 1
  96   43   85 1
  97   43   86 1
  98   44   49 1
  99   44   87 1
 100   44   88 1
 101   46   90 1
 102   46   91 1
 103   47   53 1
 104   47   55 1
 105   47   92 1
 106   48   94 1
 107   48   95 1
 108   49   96 1
 109   49   97 1
 110   50   51 1
 111   51   56 1
 112   51   98 1
 113   52   54 1
 114   52   58 1
 115   52   99 1
 116   54   57 1
 117   54  100 1
 118   54  101 1
 119   55  102 1
 120   55  103 1
 121   55  104 1
 122   56  107 1
 123   56  108 1
 124   56  109 1
 125   57   61 1
 126   57  110 1
 127   57  111 1
 128   59   60 1
 129   60   63 1
 130   60  112 1
 131   61  113 1
 132   61  114 1
 133   63  115 1
 134   63  116 1
 135   66   68 1
 136   68  132 1
 137   68  133 1
 138   68  134 1
 139   69   70 1
 140   69  135 1
 141   69  136 1
 142   70   71 1
 143   70  141 1

#	End of record

