#	Name: ASD05420014
#	Creating user name:	WinNT
#	Creation time:	15. 06. 2019 20:59

#	Modifying user name:	WinNT
#	Modification time:	15. 06. 2019 20:59

#	Program:	/corina/corina34_cracker 3.40 0067  02.08.2006

@<TRIPOS>MOLECULE
ASD05420014
  31   32    0    0    0
SMALL
NO_CHARGES


@<TRIPOS>ATOM
   1 C1             0.0336     1.4156     0.2675 C.ar    
   2 C2             0.0877     0.0518     0.5168 C.ar    
   3 C3             1.2499    -0.6554     0.2431 C.ar    
   4 C4             2.3559     0.0029    -0.2795 C.ar    
   5 C5             2.3004     1.3615    -0.5272 C.ar    
   6 C6             1.1440     2.0697    -0.2558 C.ar    
   7 N7            -1.1376     2.1305     0.5366 N.pl3   
   8 N8             1.3077    -2.0297     0.4935 N.pl3   
   9 N9             3.5957    -0.7515    -0.5709 N.pl3   
  10 O10            4.6821    -0.2404    -0.3658 O.2     
  11 O11            3.5295    -1.8834    -1.0159 O.2     
  12 C12           -2.3086     1.4395     1.0821 C.3     
  13 C13           -3.4286     2.4283     1.2795 C.ar    
  14 C14           -4.3307     2.6629     0.2585 C.ar    
  15 C15           -5.3585     3.5691     0.4385 C.ar    
  16 C16           -5.4845     4.2421     1.6420 C.ar    
  17 C17           -4.5804     4.0063     2.6638 C.ar    
  18 C18           -3.5566     3.0957     2.4833 C.ar    
  19 F19           -6.4886     5.1285     1.8189 F       
  20 F20            1.0927     3.3976    -0.4994 F       
  21 H21           -0.7730    -0.4584     0.9234 H       
  22 H22            3.1617     1.8711    -0.9332 H       
  23 H23           -1.1748     3.0839     0.3621 H       
  24 H24            0.5055    -2.5097     0.7522 H       
  25 H25            2.1501    -2.5031     0.4086 H       
  26 H26           -2.6281     0.6624     0.3877 H       
  27 H27           -2.0503     0.9872     2.0396 H       
  28 H28           -4.2320     2.1381    -0.6802 H       
  29 H29           -6.0629     3.7525    -0.3593 H       
  30 H30           -4.6777     4.5307     3.6029 H       
  31 H31           -2.8537     2.9086     3.2817 H       
@<TRIPOS>BOND
   1    1    2 ar
   2    1    6 ar
   3    1    7 1
   4    2    3 ar
   5    2   21 1
   6    3    4 ar
   7    3    8 1
   8    4    5 ar
   9    4    9 1
  10    5    6 ar
  11    5   22 1
  12    6   20 1
  13    7   12 1
  14    7   23 1
  15    8   24 1
  16    8   25 1
  17    9   10 2
  18    9   11 2
  19   12   13 1
  20   12   26 1
  21   12   27 1
  22   13   14 ar
  23   13   18 ar
  24   14   15 ar
  25   14   28 1
  26   15   16 ar
  27   15   29 1
  28   16   17 ar
  29   16   19 1
  30   17   18 ar
  31   17   30 1
  32   18   31 1

#	End of record

