#	Name: ASD08720001
#	Creating user name:	WinNT
#	Creation time:	15. 06. 2019 21:19

#	Modifying user name:	WinNT
#	Modification time:	15. 06. 2019 21:19

#	Program:	/corina/corina34_cracker 3.40 0067  02.08.2006

@<TRIPOS>MOLECULE
ASD08720001
  54   53    0    0    0
SMALL
NO_CHARGES


@<TRIPOS>ATOM
   1 C1            -2.0155     1.3933    -1.3478 C.3     
   2 C2            -1.7238    -0.0928    -1.1298 C.3     
   3 C3            -3.0410    -0.8499    -0.9493 C.3     
   4 C4            -2.7493    -2.3359    -0.7313 C.3     
   5 C5            -4.0665    -3.0931    -0.5507 C.3     
   6 C6            -3.7792    -4.5568    -0.3360 C.2     
   7 C7            -4.0908    -5.1253     0.8023 C.2     
   8 C8            -4.5708    -4.2852     1.9577 C.3     
   9 C9            -5.9938    -4.6536     2.2896 C.2     
  10 C10           -6.3177    -4.9760     3.5174 C.2     
  11 C11           -5.3034    -4.8426     4.6239 C.3     
  12 C12           -5.8956    -4.0411     5.7543 C.2     
  13 C13           -5.8792    -4.5180     6.9743 C.2     
  14 C14           -5.1449    -5.7998     7.2725 C.3     
  15 C15           -4.2024    -5.5816     8.4279 C.2     
  16 C16           -4.3535    -6.2661     9.5346 C.2     
  17 C17           -5.5750    -7.1273     9.7272 C.3     
  18 C18           -5.1519    -8.5926     9.8496 C.3     
  19 C19           -6.3921    -9.4669    10.0451 C.3     
  20 C20           -5.9754   -10.9101    10.1657 C.2     
  21 O21           -6.9029   -11.8639    10.3441 O.3     
  22 O22           -4.8063   -11.2087    10.1019 O.2     
  23 H23           -1.0771     1.9327    -1.4765 H       
  24 H24           -2.6302     1.5159    -2.2396 H       
  25 H25           -2.5469     1.7899    -0.4828 H       
  26 H26           -1.1923    -0.4894    -1.9949 H       
  27 H27           -1.1090    -0.2154    -0.2381 H       
  28 H28           -3.5724    -0.4532    -0.0842 H       
  29 H29           -3.6557    -0.7273    -1.8410 H       
  30 H30           -2.2178    -2.7326    -1.5963 H       
  31 H31           -2.1345    -2.4585     0.1605 H       
  32 H32           -4.5979    -2.6964     0.3144 H       
  33 H33           -4.6812    -2.9705    -1.4424 H       
  34 H34           -3.3163    -5.1370    -1.1205 H       
  35 H35           -4.0038    -6.1962     0.9128 H       
  36 H36           -3.9369    -4.4654     2.8259 H       
  37 H37           -4.5225    -3.2310     1.6851 H       
  38 H38           -6.7468    -4.6518     1.5153 H       
  39 H39           -7.3115    -5.3375     3.7365 H       
  40 H40           -5.0284    -5.8333     4.9861 H       
  41 H41           -4.4163    -4.3353     4.2445 H       
  42 H42           -6.3336    -3.0735     5.5586 H       
  43 H43           -6.3919    -3.9925     7.7664 H       
  44 H44           -5.8629    -6.5780     7.5311 H       
  45 H45           -4.5776    -6.1063     6.3937 H       
  46 H46           -3.4024    -4.8610     8.3436 H       
  47 H47           -3.6025    -6.2132    10.3090 H       
  48 H48           -6.0952    -6.8223    10.6351 H       
  49 H49           -6.2399    -7.0115     8.8712 H       
  50 H50           -4.6317    -8.8976     8.9416 H       
  51 H51           -4.4871    -8.7084    10.7056 H       
  52 H52           -6.9123    -9.1619    10.9531 H       
  53 H53           -7.0569    -9.3511     9.1891 H       
  54 H54           -6.5873   -12.7751    10.4159 H       
@<TRIPOS>BOND
   1    1    2 1
   2    1   23 1
   3    1   24 1
   4    1   25 1
   5    2    3 1
   6    2   26 1
   7    2   27 1
   8    3    4 1
   9    3   28 1
  10    3   29 1
  11    4    5 1
  12    4   30 1
  13    4   31 1
  14    5    6 1
  15    5   32 1
  16    5   33 1
  17    6    7 2
  18    6   34 1
  19    7    8 1
  20    7   35 1
  21    8    9 1
  22    8   36 1
  23    8   37 1
  24    9   10 2
  25    9   38 1
  26   10   11 1
  27   10   39 1
  28   11   12 1
  29   11   40 1
  30   11   41 1
  31   12   13 2
  32   12   42 1
  33   13   14 1
  34   13   43 1
  35   14   15 1
  36   14   44 1
  37   14   45 1
  38   15   16 2
  39   15   46 1
  40   16   17 1
  41   16   47 1
  42   17   18 1
  43   17   48 1
  44   17   49 1
  45   18   19 1
  46   18   50 1
  47   18   51 1
  48   19   20 1
  49   19   52 1
  50   19   53 1
  51   20   21 1
  52   20   22 2
  53   21   54 1

#	End of record

