#	Name: ASD01200501
#	Creating user name:	WinNT
#	Creation time:	15. 06. 2019 19:09

#	Modifying user name:	WinNT
#	Modification time:	15. 06. 2019 19:09

#	Program:	/corina/corina34_cracker 3.40 0067  02.08.2006

@<TRIPOS>MOLECULE
ASD01200501
  25   26    0    0    0
SMALL
NO_CHARGES


@<TRIPOS>ATOM
   1 N1            -0.2160     1.2747    -0.5860 N.ar    
   2 C2            -0.1431    -0.0178    -0.3393 C.ar    
   3 C3             1.0014    -0.7367    -0.6597 C.ar    
   4 C4             2.0746    -0.0715    -1.2470 C.ar    
   5 C5             1.9543     1.2875    -1.4881 C.ar    
   6 C6             0.7826     1.9336    -1.1410 C.ar    
   7 N7             1.0751    -2.1085    -0.3959 N.am    
   8 C8             2.2100    -2.8902    -0.8932 C.3     
   9 C9             0.1020    -2.7111     0.3157 C.2     
  10 O10           -0.7749    -2.0449     0.8329 O.2     
  11 C11           -1.0229    -4.9013     0.7200 C.2     
  12 C12            0.1001    -4.1734     0.4669 C.2     
  13 C13            1.2898    -4.9878     0.3620 C.2     
  14 C14            1.0507    -6.2829     0.5332 C.2     
  15 S15           -0.6558    -6.5619     0.8326 S.3     
  16 Cl16           2.2590    -7.5276     0.4691 Cl      
  17 Cl17          -2.6118    -4.2282     0.9096 Cl      
  18 H18           -0.9816    -0.5231     0.1168 H       
  19 H19            2.9787    -0.6018    -1.5077 H       
  20 H20            2.7666     1.8358    -1.9418 H       
  21 H21            0.6835     2.9928    -1.3271 H       
  22 H22            2.9688    -2.9649    -0.1143 H       
  23 H23            1.8709    -3.8892    -1.1671 H       
  24 H24            2.6347    -2.3980    -1.7681 H       
  25 H25            2.2720    -4.5846     0.1641 H       
@<TRIPOS>BOND
   1    1    2 ar
   2    1    6 ar
   3    2    3 ar
   4    2   18 1
   5    3    4 ar
   6    3    7 1
   7    4    5 ar
   8    4   19 1
   9    5    6 ar
  10    5   20 1
  11    6   21 1
  12    7    8 1
  13    7    9 am
  14    8   22 1
  15    8   23 1
  16    8   24 1
  17    9   10 2
  18    9   12 1
  19   11   12 2
  20   11   15 1
  21   11   17 1
  22   12   13 1
  23   13   14 2
  24   13   25 1
  25   14   15 1
  26   14   16 1

#	End of record

