#	Name: ASD01812799
#	Creating user name:	WinNT
#	Creation time:	15. 06. 2019 19:29

#	Modifying user name:	WinNT
#	Modification time:	15. 06. 2019 19:29

#	Program:	/corina/corina34_cracker 3.40 0067  02.08.2006

@<TRIPOS>MOLECULE
ASD01812799
  52   56    0    0    0
SMALL
NO_CHARGES


@<TRIPOS>ATOM
   1 N1            -0.0158     1.3131     0.0093 N.ar    
   2 C2             0.0021    -0.0041     0.0020 C.ar    
   3 N3             1.1297    -0.6934    -0.0120 N.ar    
   4 C4             2.2937    -0.0788    -0.0198 C.ar    
   5 C5             2.3340     1.3184    -0.0131 C.ar    
   6 C6             1.1134     2.0143     0.0022 C.ar    
   7 C7             3.7270    -0.5433    -0.0361 C.3     
   8 N8             4.5517     0.6712    -0.0379 N.am    
   9 C9             3.7399     1.7438    -0.0246 C.2     
  10 C10            6.0161     0.7089    -0.0519 C.3     
  11 C11            6.5045     0.7290    -1.4774 C.ar    
  12 C12            6.6970     1.9370    -2.1229 C.ar    
  13 C13            7.1446     1.9611    -3.4284 C.ar    
  14 C14            7.4025     0.7659    -4.0958 C.ar    
  15 C15            7.2069    -0.4480    -3.4410 C.ar    
  16 C16            6.7640    -0.4606    -2.1338 C.ar    
  17 O17            1.0880     3.3668     0.0093 O.3     
  18 O18            4.1161     2.9000    -0.0228 O.2     
  19 C19           -0.1971     3.9915     0.0245 C.3     
  20 C20            7.3294     1.4847    -6.5326 C.2     
  21 C21            7.8836     0.7857    -5.5003 C.2     
  22 C22            8.9952     0.0863    -6.0092 C.2     
  23 N23            9.0965     0.3570    -7.2835 N.2     
  24 N24            8.0624     1.2327    -7.6358 N.pl3   
  25 C25            9.9089    -0.8167    -5.2212 C.3     
  26 C26            7.8184     1.7801    -8.9726 C.3     
  27 C27           -0.2110     5.3547     0.7360 C.3     
  28 C28           -1.1522     5.8391    -0.3795 C.3     
  29 C29           -0.5275     4.7524    -1.2704 C.3     
  30 H30           -0.9363    -0.5387     0.0081 H       
  31 H31            3.9381    -1.1382     0.8526 H       
  32 H32            3.9208    -1.1292    -0.9346 H       
  33 H33            6.3614     1.6053     0.4631 H       
  34 H34            6.4071    -0.1740     0.4537 H       
  35 H35            6.4965     2.8631    -1.6047 H       
  36 H36            7.2943     2.9049    -3.9316 H       
  37 H37            7.4053    -1.3774    -3.9539 H       
  38 H38            6.6159    -1.4010    -1.6238 H       
  39 H39           -0.9904     3.3198     0.3523 H       
  40 H40            6.4586     2.1211    -6.4771 H       
  41 H41            9.5247    -1.8363    -5.2493 H       
  42 H42           10.9077    -0.7926    -5.6569 H       
  43 H43            9.9551    -0.4741    -4.1874 H       
  44 H44            8.3623     2.7180    -9.0860 H       
  45 H45            8.1602     1.0688    -9.7245 H       
  46 H46            6.7514     1.9610    -9.1021 H       
  47 H47           -0.6780     5.3286     1.7206 H       
  48 H48            0.7570     5.8557     0.7388 H       
  49 H49           -2.2075     5.6730    -0.1632 H       
  50 H50           -0.9429     6.8541    -0.7172 H       
  51 H51            0.3540     5.0887    -1.8162 H       
  52 H52           -1.2500     4.2400    -1.9057 H       
@<TRIPOS>BOND
   1    1    2 ar
   2    1    6 ar
   3    2    3 ar
   4    2   30 1
   5    3    4 ar
   6    4    7 1
   7    4    5 ar
   8    5    6 ar
   9    5    9 1
  10    6   17 1
  11    7    8 1
  12    7   31 1
  13    7   32 1
  14    8    9 am
  15    8   10 1
  16    9   18 2
  17   10   11 1
  18   10   33 1
  19   10   34 1
  20   11   12 ar
  21   11   16 ar
  22   12   13 ar
  23   12   35 1
  24   13   14 ar
  25   13   36 1
  26   14   15 ar
  27   14   21 1
  28   15   16 ar
  29   15   37 1
  30   16   38 1
  31   17   19 1
  32   19   27 1
  33   19   29 1
  34   19   39 1
  35   20   21 2
  36   20   24 1
  37   20   40 1
  38   21   22 1
  39   22   23 2
  40   22   25 1
  41   23   24 1
  42   24   26 1
  43   25   41 1
  44   25   42 1
  45   25   43 1
  46   26   44 1
  47   26   45 1
  48   26   46 1
  49   27   28 1
  50   27   47 1
  51   27   48 1
  52   28   29 1
  53   28   49 1
  54   28   50 1
  55   29   51 1
  56   29   52 1

#	End of record

