#	Name: ASD01890028
#	Creating user name:	WinNT
#	Creation time:	15. 06. 2019 19:50

#	Modifying user name:	WinNT
#	Modification time:	15. 06. 2019 19:50

#	Program:	/corina/corina34_cracker 3.40 0067  02.08.2006

@<TRIPOS>MOLECULE
ASD01890028
  33   36    0    0    0
SMALL
NO_CHARGES


@<TRIPOS>ATOM
   1 C1            -0.0156     1.2977     0.0092 C.2     
   2 N2             0.0021    -0.0041     0.0020 N.2     
   3 C3             1.2815    -0.4376    -0.0244 C.ar    
   4 C4             2.1193     0.7058    -0.0283 C.ar    
   5 N5             1.2818     1.7890    -0.0006 N.am    
   6 C6             1.8257    -1.7252    -0.0461 C.ar    
   7 C7             3.2062    -1.8242    -0.0720 C.ar    
   8 C8             4.0208    -0.7053    -0.0765 C.ar    
   9 C9             3.5014     0.5816    -0.0553 C.ar    
  10 N10           -1.1025     2.1568     0.0122 N.pl3   
  11 C11           -0.8522     3.5183    -0.4982 C.3     
  12 C12            0.4055     4.0826     0.1678 C.3     
  13 C13            1.5526     3.1094     0.0259 C.2     
  14 O14            2.6939     3.5080    -0.0620 O.2     
  15 C15           -0.6517     3.4674    -1.9910 C.ar    
  16 C16           -1.1939     4.4527    -2.7950 C.ar    
  17 C17           -1.0103     4.4065    -4.1641 C.ar    
  18 C18           -0.2838     3.3740    -4.7299 C.ar    
  19 C19            0.2586     2.3882    -3.9248 C.ar    
  20 C20            0.0791     2.4385    -2.5552 C.ar    
  21 Cl21          -0.0533     3.3150    -6.4495 Cl      
  22 Cl22           5.7434    -0.9178    -0.1101 Cl      
  23 H23            1.1971    -2.6034    -0.0424 H       
  24 H24            3.6611    -2.8036    -0.0889 H       
  25 H25            4.1449     1.4489    -0.0589 H       
  26 H26           -1.9758     1.8797     0.3305 H       
  27 H27           -1.7047     4.1566    -0.2661 H       
  28 H28            0.6725     5.0270    -0.3065 H       
  29 H29            0.2074     4.2556     1.2255 H       
  30 H30           -1.7613     5.2584    -2.3532 H       
  31 H31           -1.4342     5.1761    -4.7921 H       
  32 H32            0.8258     1.5820    -4.3659 H       
  33 H33            0.5062     1.6715    -1.9262 H       
@<TRIPOS>BOND
   1    1    2 2
   2    1    5 1
   3    1   10 1
   4    2    3 1
   5    3    4 ar
   6    3    6 ar
   7    4    5 1
   8    4    9 ar
   9    5   13 am
  10    6    7 ar
  11    6   23 1
  12    7    8 ar
  13    7   24 1
  14    8    9 ar
  15    8   22 1
  16    9   25 1
  17   10   11 1
  18   10   26 1
  19   11   12 1
  20   11   15 1
  21   11   27 1
  22   12   13 1
  23   12   28 1
  24   12   29 1
  25   13   14 2
  26   15   16 ar
  27   15   20 ar
  28   16   17 ar
  29   16   30 1
  30   17   18 ar
  31   17   31 1
  32   18   19 ar
  33   18   21 1
  34   19   20 ar
  35   19   32 1
  36   20   33 1

#	End of record

