#	Name: ASD01915436
#	Creating user name:	WinNT
#	Creation time:	15. 06. 2019 20:05

#	Modifying user name:	WinNT
#	Modification time:	15. 06. 2019 20:05

#	Program:	/corina/corina34_cracker 3.40 0067  02.08.2006

@<TRIPOS>MOLECULE
ASD01915436
  39   41    0    0    0
SMALL
NO_CHARGES


@<TRIPOS>ATOM
   1 C1            -0.0167     1.3796     0.0096 C.ar    
   2 C2             0.0021    -0.0041     0.0020 C.ar    
   3 C3             1.2058    -0.6865    -0.0132 C.ar    
   4 C4             2.3967     0.0091    -0.0204 C.ar    
   5 C5             2.3857     1.4065    -0.0128 C.ar    
   6 C6             1.1662     2.0887     0.0021 C.ar    
   7 C7             3.6180     2.1358    -0.0198 C.1     
   8 C8             4.6284     2.7337    -0.0255 C.1     
   9 C9             5.8608     3.4629    -0.0324 C.ar    
  10 C10            5.8579     4.8662    -0.0248 C.ar    
  11 C11            7.0706     5.5243    -0.0315 C.ar    
  12 C12            8.2484     4.7813    -0.0454 C.ar    
  13 N13            8.2182     3.4566    -0.0527 N.ar    
  14 C14            7.0832     2.7884    -0.0410 C.ar    
  15 N15            9.4720     5.4380    -0.0522 N.pl3   
  16 C16            9.5174     6.9023    -0.0447 C.3     
  17 C17           10.8460     7.3706     0.5567 C.3     
  18 C18           10.9179     8.8984     0.4883 C.3     
  19 O19           10.7775     9.3201    -0.8699 O.3     
  20 C20            9.5340     8.9513    -1.4698 C.3     
  21 C21            9.4066     7.4257    -1.4800 C.3     
  22 H22           -0.9600     1.9055     0.0170 H       
  23 H23           -0.9274    -0.5541     0.0083 H       
  24 H24            1.2128    -1.7664    -0.0191 H       
  25 H25            3.3354    -0.5248    -0.0316 H       
  26 H26            1.1500     3.1686     0.0081 H       
  27 H27            4.9292     5.4176    -0.0144 H       
  28 H28            7.1061     6.6037    -0.0264 H       
  29 H29            7.0982     1.7085    -0.0471 H       
  30 H30           10.2965     4.9272    -0.0619 H       
  31 H31            8.6908     7.2897     0.5509 H       
  32 H32           10.9087     7.0493     1.5964 H       
  33 H33           11.6732     6.9414    -0.0087 H       
  34 H34           10.1143     9.3272     1.0870 H       
  35 H35           11.8795     9.2348     0.8758 H       
  36 H36            8.7124     9.3809    -0.8967 H       
  37 H37            9.4987     9.3259    -2.4928 H       
  38 H38           10.2047     6.9976    -2.0865 H       
  39 H39            8.4398     7.1438    -1.8969 H       
@<TRIPOS>BOND
   1    1    2 ar
   2    1    6 ar
   3    1   22 1
   4    2    3 ar
   5    2   23 1
   6    3    4 ar
   7    3   24 1
   8    4    5 ar
   9    4   25 1
  10    5    6 ar
  11    5    7 1
  12    6   26 1
  13    7    8 3
  14    8    9 1
  15    9   10 ar
  16    9   14 ar
  17   10   11 ar
  18   10   27 1
  19   11   12 ar
  20   11   28 1
  21   12   13 ar
  22   12   15 1
  23   13   14 ar
  24   14   29 1
  25   15   16 1
  26   15   30 1
  27   16   17 1
  28   16   21 1
  29   16   31 1
  30   17   18 1
  31   17   32 1
  32   17   33 1
  33   18   19 1
  34   18   34 1
  35   18   35 1
  36   19   20 1
  37   20   21 1
  38   20   36 1
  39   20   37 1
  40   21   38 1
  41   21   39 1

#	End of record

