#	Name: ASD01911121
#	Creating user name:	WinNT
#	Creation time:	15. 06. 2019 19:57

#	Modifying user name:	WinNT
#	Modification time:	15. 06. 2019 19:57

#	Program:	/corina/corina34_cracker 3.40 0067  02.08.2006

@<TRIPOS>MOLECULE
ASD01911121
  45   48    0    0    0
SMALL
NO_CHARGES


@<TRIPOS>ATOM
   1 C1            -0.1531     1.0280    -0.1828 C.2     
   2 O2            -1.1064     1.7807    -0.2301 O.2     
   3 N3             1.0995     1.5232    -0.2306 N.am    
   4 C4             2.2600     0.6442    -0.0326 C.3     
   5 C5             3.1384     1.2297     1.0775 C.3     
   6 C6             3.4975     2.6759     0.7289 C.3     
   7 C7             2.2192     3.5119     0.6330 C.3     
   8 C8             1.3306     2.9512    -0.4878 C.3     
   9 O9             5.3158     0.2158     0.2511 O.3     
  10 N10            6.2082    -0.4874     0.6758 N.2     
  11 C11            5.9728    -0.8118     1.9174 C.2     
  12 N12            4.8055    -0.2335     2.2680 N.2     
  13 C13            4.3996     0.4146     1.2036 C.2     
  14 O14            6.7557    -1.5868     2.7083 O.3     
  15 C15            7.8473    -2.1716     2.1487 C.ar    
  16 C16            8.2166    -1.8534     0.8499 C.ar    
  17 C17            9.3282    -2.4503     0.2827 C.ar    
  18 C18           10.0712    -3.3646     1.0114 C.ar    
  19 C19            9.7035    -3.6818     2.3054 C.ar    
  20 C20            8.5972    -3.0834     2.8774 C.ar    
  21 F21            9.6890    -2.1419    -0.9822 F       
  22 C22           -0.3677    -0.4303    -0.0665 C.ar    
  23 C23           -1.4197    -0.9239     0.7061 C.ar    
  24 C24           -1.6156    -2.2880     0.8113 C.ar    
  25 C25           -0.7699    -3.1646     0.1516 C.ar    
  26 C26            0.2760    -2.6801    -0.6167 C.ar    
  27 C27            0.4777    -1.3178    -0.7336 C.ar    
  28 F28            1.0973    -3.5406    -1.2571 F       
  29 F29           -2.6334    -2.7673     1.5593 F       
  30 H30            1.9200    -0.3503     0.2566 H       
  31 H31            2.8332     0.5819    -0.9576 H       
  32 H32            2.5943     1.2074     2.0218 H       
  33 H33            4.1428     3.0870     1.5053 H       
  34 H34            4.0198     2.7000    -0.2275 H       
  35 H35            1.6838     3.4681     1.5814 H       
  36 H36            2.4773     4.5467     0.4077 H       
  37 H37            1.8296     3.0732    -1.4491 H       
  38 H38            0.3772     3.4795    -0.4989 H       
  39 H39            7.6367    -1.1408     0.2821 H       
  40 H40           10.9387    -3.8304     0.5677 H       
  41 H41           10.2843    -4.3948     2.8717 H       
  42 H42            8.3138    -3.3287     3.8903 H       
  43 H43           -2.0794    -0.2413     1.2211 H       
  44 H44           -0.9263    -4.2298     0.2368 H       
  45 H45            1.2907    -0.9410    -1.3364 H       
@<TRIPOS>BOND
   1    1    2 2
   2    1    3 am
   3    1   22 1
   4    3    4 1
   5    3    8 1
   6    4    5 1
   7    4   30 1
   8    4   31 1
   9    5    6 1
  10    5   13 1
  11    5   32 1
  12    6    7 1
  13    6   33 1
  14    6   34 1
  15    7    8 1
  16    7   35 1
  17    7   36 1
  18    8   37 1
  19    8   38 1
  20    9   10 1
  21    9   13 1
  22   10   11 2
  23   11   12 1
  24   11   14 1
  25   12   13 2
  26   14   15 1
  27   15   16 ar
  28   15   20 ar
  29   16   17 ar
  30   16   39 1
  31   17   18 ar
  32   17   21 1
  33   18   19 ar
  34   18   40 1
  35   19   20 ar
  36   19   41 1
  37   20   42 1
  38   22   23 ar
  39   22   27 ar
  40   23   24 ar
  41   23   43 1
  42   24   25 ar
  43   24   29 1
  44   25   26 ar
  45   25   44 1
  46   26   27 ar
  47   26   28 1
  48   27   45 1

#	End of record

