#	Name: ASD02500015
#	Creating user name:	WinNT
#	Creation time:	15. 06. 2019 20:22

#	Modifying user name:	WinNT
#	Modification time:	15. 06. 2019 20:22

#	Program:	/corina/corina34_cracker 3.40 0067  02.08.2006

@<TRIPOS>MOLECULE
ASD02500015
  57   59    0    0    0
SMALL
NO_CHARGES


@<TRIPOS>ATOM
   1 C1            -0.0311     1.4535    -0.4453 C.ar    
   2 C2            -0.0358     0.0585    -0.4563 C.ar    
   3 C3             1.1088    -0.6605    -0.3282 C.ar    
   4 C4             2.3405     0.0120    -0.1799 C.ar    
   5 C5             2.3456     1.4785    -0.1689 C.ar    
   6 C6             1.1184     2.1621    -0.3064 C.ar    
   7 C7             3.5355    -0.6949    -0.0453 C.ar    
   8 C8             4.7348     0.0028     0.0998 C.ar    
   9 C9             4.7385     1.4692     0.1106 C.ar    
  10 C10            3.5441     2.1749    -0.0239 C.ar    
  11 C11            5.9622    -0.6792     0.2395 C.ar    
  12 C12            7.1110     0.0308     0.3797 C.ar    
  13 C13            7.1145     1.4258     0.3904 C.ar    
  14 C14            5.9695     2.1434     0.2602 C.ar    
  15 Cl15           3.5303    -2.4308    -0.0577 Cl      
  16 C16            3.5487     3.6818    -0.0132 C.3     
  17 N17            3.6495     4.1797    -1.3873 N.am    
  18 C18            2.4442     4.3081    -2.2101 C.3     
  19 C19            4.8510     4.5195    -1.8945 C.2     
  20 C20            1.8437     5.7026    -2.0208 C.3     
  21 C21            0.5849     5.8367    -2.8802 C.3     
  22 C22           -0.0156     7.2312    -2.6909 C.3     
  23 N23            4.9587     4.8798    -3.1887 N.am    
  24 O24            5.8379     4.5010    -1.1845 O.2     
  25 C25            6.2648     5.2492    -3.7400 C.3     
  26 C26            6.1123     5.6076    -5.1958 C.2     
  27 O27            5.0244     5.5595    -5.7192 O.2     
  28 O28            7.1853     5.9804    -5.9111 O.3     
  29 C29            6.9640     6.3113    -7.3075 C.3     
  30 C30            8.2924     6.7096    -7.9539 C.3     
  31 H31           -0.9658     1.9835    -0.5545 H       
  32 H32           -0.9746    -0.4633    -0.5694 H       
  33 H33            1.0768    -1.7399    -0.3394 H       
  34 H34            1.0941     3.2419    -0.3011 H       
  35 H35            5.9877    -1.7589     0.2352 H       
  36 H36            8.0465    -0.4982     0.4861 H       
  37 H37            8.0527     1.9485     0.5048 H       
  38 H38            6.0002     3.2229     0.2717 H       
  39 H39            2.6251     4.0447     0.4379 H       
  40 H40            4.4005     4.0385     0.5659 H       
  41 H41            2.7032     4.1634    -3.2590 H       
  42 H42            1.7163     3.5550    -1.9083 H       
  43 H43            1.5847     5.8473    -0.9720 H       
  44 H44            2.5716     6.4557    -2.3226 H       
  45 H45            0.8439     5.6920    -3.9290 H       
  46 H46           -0.1430     5.0836    -2.5784 H       
  47 H47           -0.2745     7.3759    -1.6420 H       
  48 H48            0.7124     7.9843    -2.9927 H       
  49 H49           -0.9123     7.3267    -3.3031 H       
  50 H50            4.1714     4.8946    -3.7552 H       
  51 H51            6.6603     6.1059    -3.1944 H       
  52 H52            6.9512     4.4081    -3.6429 H       
  53 H53            6.5533     5.4448    -7.8256 H       
  54 H54            6.2624     7.1426    -7.3771 H       
  55 H55            8.1263     6.9581    -9.0021 H       
  56 H56            8.7031     7.5762    -7.4358 H       
  57 H57            8.9940     5.8784    -7.8842 H       
@<TRIPOS>BOND
   1    1    2 ar
   2    1    6 ar
   3    1   31 1
   4    2    3 ar
   5    2   32 1
   6    3    4 ar
   7    3   33 1
   8    4    5 ar
   9    4    7 ar
  10    5    6 ar
  11    5   10 ar
  12    6   34 1
  13    7    8 ar
  14    7   15 1
  15    8    9 ar
  16    8   11 ar
  17    9   10 ar
  18    9   14 ar
  19   10   16 1
  20   11   12 ar
  21   11   35 1
  22   12   13 ar
  23   12   36 1
  24   13   14 ar
  25   13   37 1
  26   14   38 1
  27   16   17 1
  28   16   39 1
  29   16   40 1
  30   17   18 1
  31   17   19 am
  32   18   20 1
  33   18   41 1
  34   18   42 1
  35   19   23 am
  36   19   24 2
  37   20   21 1
  38   20   43 1
  39   20   44 1
  40   21   22 1
  41   21   45 1
  42   21   46 1
  43   22   47 1
  44   22   48 1
  45   22   49 1
  46   23   25 1
  47   23   50 1
  48   25   26 1
  49   25   51 1
  50   25   52 1
  51   26   27 2
  52   26   28 1
  53   28   29 1
  54   29   30 1
  55   29   53 1
  56   29   54 1
  57   30   55 1
  58   30   56 1
  59   30   57 1

#	End of record

