#	Name: ASD01411172
#	Creating user name:	WinNT
#	Creation time:	15. 06. 2019 19:19

#	Modifying user name:	WinNT
#	Modification time:	15. 06. 2019 19:19

#	Program:	/corina/corina34_cracker 3.40 0067  02.08.2006

@<TRIPOS>MOLECULE
ASD01411172
  78   82    0    0    0
SMALL
NO_CHARGES


@<TRIPOS>ATOM
   1 C1             1.5235     2.0537    -0.9801 C.ar    
   2 C2             1.4210     0.6854    -0.9504 C.ar    
   3 C3             2.5552    -0.1189    -0.8587 C.ar    
   4 C4             3.8065     0.4783    -0.7899 C.ar    
   5 C5             3.9156     1.8549    -0.8170 C.ar    
   6 C6             2.7802     2.6484    -0.9131 C.ar    
   7 P7            -0.1932    -0.1484    -1.0235 P.3     
   8 N8             0.0633    -1.7223    -0.6098 N.2     
   9 C9             1.2739    -2.1878    -0.5648 C.2     
  10 N10            2.4183    -1.5055    -0.8440 N.pl3   
  11 C11            1.4253    -3.6009    -0.1701 C.2     
  12 C12            0.4047    -4.4445     0.1468 C.2     
  13 C13            1.0352    -5.7764     0.4830 C.3     
  14 N14            2.4825    -5.5901     0.3236 N.am    
  15 C15            2.6971    -4.3200    -0.0634 C.2     
  16 C16            3.5115    -6.6099     0.5415 C.3     
  17 C17            3.6812    -7.4431    -0.7304 C.3     
  18 C18            4.6612    -8.5874    -0.4636 C.3     
  19 C19            4.0690    -9.5320     0.5843 C.3     
  20 C20            4.9112    -9.3578    -1.7615 C.3     
  21 C21            5.9832    -8.0165     0.0534 C.3     
  22 O22           -1.1306     0.4798    -0.0659 O.2     
  23 O23           -0.7897    -0.0623    -2.5164 O.3     
  24 O24           -0.9070    -4.1503     0.1587 O.3     
  25 O25            3.7907    -3.8366    -0.2886 O.2     
  26 N26            2.8991     4.0424    -0.9430 N.am    
  27 S27            2.4982     4.9364     0.3920 S.o2    
  28 O28            2.7397     6.2805    -0.0008 O.2     
  29 O29            1.1901     4.4955     0.7292 O.2     
  30 C30            3.6902     4.4192     1.6578 C.3     
  31 C31           -1.0647     1.1760    -3.1744 C.3     
  32 C32           -1.6199     0.8982    -4.5728 C.3     
  33 C33            0.7096    -6.1641     1.9268 C.3     
  34 C34           -0.7706    -6.4146     2.0580 C.2     
  35 N35           -2.9233    -6.1427     2.5255 N.pl3   
  36 C36           -1.4886    -7.6260     1.6546 C.ar    
  37 C37           -1.6805    -5.5721     2.5721 C.2     
  38 C38           -2.8407    -7.3996     1.9695 C.ar    
  39 C39           -3.7797    -8.3885     1.6937 C.ar    
  40 C40           -3.3766    -9.5730     1.1176 C.ar    
  41 C41           -2.0408    -9.7917     0.8089 C.ar    
  42 C42           -1.1017    -8.8352     1.0733 C.ar    
  43 H43            0.6361     2.6642    -1.0593 H       
  44 H44            4.6938    -0.1329    -0.7149 H       
  45 H45            4.8902     2.3170    -0.7632 H       
  46 H46            3.2072    -2.0305    -1.0510 H       
  47 H47            0.6778    -6.5448    -0.2025 H       
  48 H48            4.4565    -6.1257     0.7875 H       
  49 H49            3.2111    -7.2592     1.3638 H       
  50 H50            2.7160    -7.8532    -1.0276 H       
  51 H51            4.0692    -6.8114    -1.5295 H       
  52 H52            3.0811    -9.8599     0.2609 H       
  53 H53            4.7194   -10.3989     0.7008 H       
  54 H54            3.9848    -9.0102     1.5376 H       
  55 H55            5.3330    -8.6849    -2.5080 H       
  56 H56            5.6093   -10.1730    -1.5714 H       
  57 H57            3.9694    -9.7645    -2.1299 H       
  58 H58            5.8050    -7.4676     0.9781 H       
  59 H59            6.6813    -8.8317     0.2435 H       
  60 H60            6.4050    -7.3435    -0.6931 H       
  61 H61           -1.1567    -3.2477    -0.0822 H       
  62 H62            3.2163     4.4850    -1.7457 H       
  63 H63            4.6948     4.7112     1.3517 H       
  64 H64            3.4452     4.8991     2.6053 H       
  65 H65            3.6469     3.3366     1.7770 H       
  66 H66           -1.7984     1.7390    -2.5975 H       
  67 H67           -0.1453     1.7556    -3.2570 H       
  68 H68           -0.8861     0.3353    -5.1498 H       
  69 H69           -2.5393     0.3187    -4.4902 H       
  70 H70           -1.8296     1.8428    -5.0747 H       
  71 H71            1.2561    -7.0692     2.1920 H       
  72 H72            1.0017    -5.3542     2.5952 H       
  73 H73           -3.7407    -5.7242     2.8380 H       
  74 H74           -1.4637    -4.5896     2.9647 H       
  75 H75           -4.8210    -8.2281     1.9308 H       
  76 H76           -4.1069   -10.3394     0.9043 H       
  77 H77           -1.7413   -10.7263     0.3581 H       
  78 H78           -0.0645    -9.0122     0.8300 H       
@<TRIPOS>BOND
   1    1    2 ar
   2    1    6 ar
   3    1   43 1
   4    2    3 ar
   5    2    7 1
   6    3    4 ar
   7    3   10 1
   8    4    5 ar
   9    4   44 1
  10    5    6 ar
  11    5   45 1
  12    6   26 1
  13    7    8 1
  14    7   22 2
  15    7   23 1
  16    8    9 2
  17    9   10 1
  18    9   11 1
  19   10   46 1
  20   11   12 2
  21   11   15 1
  22   12   13 1
  23   12   24 1
  24   13   14 1
  25   13   33 1
  26   13   47 1
  27   14   15 am
  28   14   16 1
  29   15   25 2
  30   16   17 1
  31   16   48 1
  32   16   49 1
  33   17   18 1
  34   17   50 1
  35   17   51 1
  36   18   19 1
  37   18   20 1
  38   18   21 1
  39   19   52 1
  40   19   53 1
  41   19   54 1
  42   20   55 1
  43   20   56 1
  44   20   57 1
  45   21   58 1
  46   21   59 1
  47   21   60 1
  48   23   31 1
  49   24   61 1
  50   26   27 am
  51   26   62 1
  52   27   28 2
  53   27   29 2
  54   27   30 1
  55   30   63 1
  56   30   64 1
  57   30   65 1
  58   31   32 1
  59   31   66 1
  60   31   67 1
  61   32   68 1
  62   32   69 1
  63   32   70 1
  64   33   34 1
  65   33   71 1
  66   33   72 1
  67   34   37 2
  68   34   36 1
  69   35   38 1
  70   35   37 1
  71   35   73 1
  72   36   38 ar
  73   36   42 ar
  74   37   74 1
  75   38   39 ar
  76   39   40 ar
  77   39   75 1
  78   40   41 ar
  79   40   76 1
  80   41   42 ar
  81   41   77 1
  82   42   78 1

#	End of record

