#	Name: ASD01885476
#	Creating user name:	WinNT
#	Creation time:	15. 06. 2019 19:49

#	Modifying user name:	WinNT
#	Modification time:	15. 06. 2019 19:49

#	Program:	/corina/corina34_cracker 3.40 0067  02.08.2006

@<TRIPOS>MOLECULE
ASD01885476
  49   52    0    0    0
SMALL
NO_CHARGES


@<TRIPOS>ATOM
   1 C1             0.4345     1.3903    -2.0877 C.ar    
   2 C2             0.6827     0.5637    -3.1836 C.ar    
   3 N3            -0.2879    -0.0843    -3.8766 N.2     
   4 C4            -1.4257     0.3971    -4.2227 C.2     
   5 C5            -1.8422     1.7948    -3.8466 C.3     
   6 C6            -1.9179     1.8741    -2.3428 C.2     
   7 N7            -0.8367     1.6552    -1.5954 N.am    
   8 C8             1.5045     2.0015    -1.4353 C.ar    
   9 C9             2.8046     1.8003    -1.8676 C.ar    
  10 C10            3.0526     0.9803    -2.9642 C.ar    
  11 C11            2.0076     0.3698    -3.6141 C.ar    
  12 C12           -2.3487    -0.4391    -5.0089 C.ar    
  13 O13           -2.9733     2.1417    -1.8084 O.2     
  14 C14           -1.9247    -1.6763    -5.5047 C.ar    
  15 C15           -2.7891    -2.4607    -6.2418 C.ar    
  16 C16           -4.0766    -2.0308    -6.4953 C.ar    
  17 C17           -4.5145    -0.7968    -6.0065 C.ar    
  18 C18           -3.6507    -0.0016    -5.2565 C.ar    
  19 C19           -5.8501    -0.3531    -6.2713 C.1     
  20 N20           -6.9096    -0.0012    -6.4815 N.1     
  21 N21            3.8663     2.4203    -1.2036 N.pl3   
  22 C22            3.7103     3.6786    -0.6896 C.2     
  23 N23            2.5954     4.3510    -0.9155 N.2     
  24 N24            4.7086     4.2406     0.0581 N.pl3   
  25 C25            5.9263     3.5709     0.2152 C.ar    
  26 C26            2.4838     5.6363    -0.5013 C.1     
  27 N27            2.3901     6.7139    -0.1540 N.1     
  28 C28            7.1168     4.2862     0.2331 C.ar    
  29 C29            8.3175     3.6218     0.3883 C.ar    
  30 C30            8.3355     2.2459     0.5259 C.ar    
  31 C31            7.1521     1.5308     0.5081 C.ar    
  32 C32            5.9474     2.1897     0.3594 C.ar    
  33 H33           -1.1071     2.5097    -4.2162 H       
  34 H34           -2.8194     2.0157    -4.2763 H       
  35 H35           -0.9460     1.6800    -0.6319 H       
  36 H36            1.3172     2.6391    -0.5840 H       
  37 H37            4.0657     0.8242    -3.3042 H       
  38 H38            2.2054    -0.2655    -4.4648 H       
  39 H39           -0.9189    -2.0186    -5.3108 H       
  40 H40           -2.4567    -3.4152    -6.6223 H       
  41 H41           -4.7469    -2.6496    -7.0733 H       
  42 H42           -3.9842     0.9526    -4.8760 H       
  43 H43            4.7138     1.9586    -1.1070 H       
  44 H44            4.5719     5.1036     0.4794 H       
  45 H45            7.1034     5.3607     0.1253 H       
  46 H46            9.2436     4.1774     0.4019 H       
  47 H47            9.2758     1.7288     0.6471 H       
  48 H48            7.1695     0.4562     0.6154 H       
  49 H49            5.0235     1.6305     0.3455 H       
@<TRIPOS>BOND
   1    1    2 ar
   2    1    8 ar
   3    1    7 1
   4    2    3 1
   5    2   11 ar
   6    3    4 2
   7    4    5 1
   8    4   12 1
   9    5    6 1
  10    5   33 1
  11    5   34 1
  12    6    7 am
  13    6   13 2
  14    7   35 1
  15    8    9 ar
  16    8   36 1
  17    9   10 ar
  18    9   21 1
  19   10   11 ar
  20   10   37 1
  21   11   38 1
  22   12   14 ar
  23   12   18 ar
  24   14   15 ar
  25   14   39 1
  26   15   16 ar
  27   15   40 1
  28   16   17 ar
  29   16   41 1
  30   17   18 ar
  31   17   19 1
  32   18   42 1
  33   19   20 3
  34   21   22 1
  35   21   43 1
  36   22   23 2
  37   22   24 1
  38   23   26 1
  39   24   25 1
  40   24   44 1
  41   25   28 ar
  42   25   32 ar
  43   26   27 3
  44   28   29 ar
  45   28   45 1
  46   29   30 ar
  47   29   46 1
  48   30   31 ar
  49   30   47 1
  50   31   32 ar
  51   31   48 1
  52   32   49 1

#	End of record

