#	Name: ASD01914386
#	Creating user name:	WinNT
#	Creation time:	15. 06. 2019 20:03

#	Modifying user name:	WinNT
#	Modification time:	15. 06. 2019 20:03

#	Program:	/corina/corina34_cracker 3.40 0067  02.08.2006

@<TRIPOS>MOLECULE
ASD01914386
  45   47    0    0    0
SMALL
NO_CHARGES


@<TRIPOS>ATOM
   1 C1            -0.0167     1.3806     0.0096 C.ar    
   2 C2             0.0021    -0.0041     0.0020 C.ar    
   3 C3             1.2096    -0.6818    -0.0132 C.ar    
   4 C4             2.3977     0.0225    -0.0203 C.ar    
   5 C5             2.3808     1.4105    -0.0127 C.ar    
   6 C6             1.1693     2.0882     0.0021 C.ar    
   7 N7             3.5864     2.1275    -0.0195 N.pl3   
   8 C8             4.6543     1.9285     0.8145 C.2     
   9 C9             5.6008     2.8364     0.4605 C.2     
  10 C10            6.9353     2.9971     1.0888 C.ar    
  11 C11            7.8129     3.9748     0.6236 C.ar    
  12 C12            9.0529     4.1217     1.2097 C.ar    
  13 C13            9.4271     3.2968     2.2615 C.ar    
  14 C14            8.5553     2.3221     2.7270 C.ar    
  15 C15            7.3116     2.1744     2.1490 C.ar    
  16 N16            5.1127     3.5651    -0.5638 N.2     
  17 C17            3.9142     3.1447    -0.8587 C.2     
  18 C18            3.0346     3.6990    -1.9496 C.3     
  19 C19            2.1916     4.8183    -1.3951 C.2     
  20 O20            2.2945     5.1336    -0.2333 O.2     
  21 O21            1.3264     5.4650    -2.1920 O.3     
  22 C22            0.5473     6.5324    -1.5903 C.3     
  23 C23           -0.3755     7.1470    -2.6446 C.3     
  24 O24           10.6499     3.4433     2.8364 O.3     
  25 F25           -1.1591    -0.6946     0.0099 F       
  26 C26           10.9701     2.5611     3.9139 C.3     
  27 H27           -0.9594     1.9075     0.0170 H       
  28 H28            1.2224    -1.7617    -0.0191 H       
  29 H29            3.3392    -0.5064    -0.0315 H       
  30 H30            1.1543     3.1681     0.0077 H       
  31 H31            4.7292     1.1927     1.6016 H       
  32 H32            7.5226     4.6164    -0.1951 H       
  33 H33            9.7334     4.8791     0.8497 H       
  34 H34            8.8493     1.6818     3.5454 H       
  35 H35            6.6336     1.4159     2.5116 H       
  36 H36            3.6567     4.0796    -2.7597 H       
  37 H37            2.3861     2.9096    -2.3297 H       
  38 H38           -0.0518     6.1291    -0.7738 H       
  39 H39            1.2189     7.2990    -1.2039 H       
  40 H40            0.2236     7.5503    -3.4611 H       
  41 H41           -1.0470     6.3803    -3.0310 H       
  42 H42           -0.9603     7.9482    -2.1929 H       
  43 H43           10.2493     2.6959     4.7203 H       
  44 H44           10.9335     1.5300     3.5624 H       
  45 H45           11.9719     2.7845     4.2809 H       
@<TRIPOS>BOND
   1    1    2 ar
   2    1    6 ar
   3    1   27 1
   4    2    3 ar
   5    2   25 1
   6    3    4 ar
   7    3   28 1
   8    4    5 ar
   9    4   29 1
  10    5    6 ar
  11    5    7 1
  12    6   30 1
  13    7    8 1
  14    7   17 1
  15    8    9 2
  16    8   31 1
  17    9   10 1
  18    9   16 1
  19   10   11 ar
  20   10   15 ar
  21   11   12 ar
  22   11   32 1
  23   12   13 ar
  24   12   33 1
  25   13   14 ar
  26   13   24 1
  27   14   15 ar
  28   14   34 1
  29   15   35 1
  30   16   17 2
  31   17   18 1
  32   18   19 1
  33   18   36 1
  34   18   37 1
  35   19   20 2
  36   19   21 1
  37   21   22 1
  38   22   23 1
  39   22   38 1
  40   22   39 1
  41   23   40 1
  42   23   41 1
  43   23   42 1
  44   24   26 1
  45   26   43 1
  46   26   44 1
  47   26   45 1

#	End of record

