#	Name: ASD01812326
#	Creating user name:	WinNT
#	Creation time:	15. 06. 2019 19:28

#	Modifying user name:	WinNT
#	Modification time:	15. 06. 2019 19:28

#	Program:	/corina/corina34_cracker 3.40 0067  02.08.2006

@<TRIPOS>MOLECULE
ASD01812326
  58   62    0    0    0
SMALL
NO_CHARGES


@<TRIPOS>ATOM
   1 C1            -0.0178     1.4608     0.0101 C.3     
   2 N2             0.0021    -0.0041     0.0020 N.am    
   3 C3            -0.5728    -0.8723     1.0358 C.3     
   4 C4            -0.3083    -2.2893     0.5920 C.ar    
   5 C5             0.3761    -2.2017    -0.6224 C.ar    
   6 C6             0.5448    -0.7745    -0.9565 C.2     
   7 O7             1.0977    -0.3553    -1.9546 O.2     
   8 C8            -0.6029    -3.5180     1.1362 C.ar    
   9 C9            -0.2201    -4.6752     0.4790 C.ar    
  10 C10            0.4584    -4.5997    -0.7247 C.ar    
  11 C11            0.7590    -3.3729    -1.2790 C.ar    
  12 C12            0.8717    -5.8641    -1.4330 C.3     
  13 C13           -0.2737    -6.3661    -2.2740 C.ar    
  14 C14           -1.2020    -7.2403    -1.7388 C.ar    
  15 C15           -0.4101    -5.9512    -3.5909 C.ar    
  16 C16           -1.4762    -6.4358    -4.3293 C.ar    
  17 C17           -2.3703    -7.3184    -3.7280 C.ar    
  18 N18           -2.2075    -7.6862    -2.4636 N.ar    
  19 C19           -0.5429    -6.0204     1.0765 C.3     
  20 C20           -0.7578     1.9676    -1.2295 C.3     
  21 O21           -2.0984     1.4730    -1.2193 O.3     
  22 C22            1.4176     1.9904    -0.0008 C.3     
  23 C23            1.3968     3.5202     0.0076 C.3     
  24 C24            0.6569     4.0270    -1.2319 C.3     
  25 C25           -0.7785     3.4974    -1.2210 C.3     
  26 C26           -3.5180    -7.8467    -4.5059 C.2     
  27 N27           -4.4317    -8.6781    -4.0550 N.2     
  28 N28           -3.7984    -7.5513    -5.7825 N.2     
  29 C29           -4.8766    -8.1869    -6.1569 C.2     
  30 N30           -5.3223    -8.9129    -5.1153 N.pl3   
  31 C31           -6.5059    -9.7758    -5.0910 C.3     
  32 H32           -0.5280     1.8123     0.9069 H       
  33 H33           -0.0895    -0.6838     1.9945 H       
  34 H34           -1.6459    -0.6991     1.1162 H       
  35 H35           -1.1320    -3.5800     2.0757 H       
  36 H36            1.2886    -3.3184    -2.2187 H       
  37 H37            1.7295    -5.6581    -2.0732 H       
  38 H38            1.1412    -6.6214    -0.6969 H       
  39 H39           -1.1010    -7.5620    -0.7128 H       
  40 H40            0.2992    -5.2653    -4.0300 H       
  41 H41           -1.6129    -6.1334    -5.3571 H       
  42 H42           -1.5159    -6.3542     0.7158 H       
  43 H43            0.2202    -6.7411     0.7827 H       
  44 H44           -0.5667    -5.9391     2.1632 H       
  45 H45           -0.2476     1.6161    -2.1262 H       
  46 H46           -2.6276     1.7553    -1.9778 H       
  47 H47            1.9448     1.6293     0.8823 H       
  48 H48            1.9278     1.6388    -0.8976 H       
  49 H49            0.8867     3.8717     0.9044 H       
  50 H50            2.4194     3.8975    -0.0001 H       
  51 H51            0.6421     5.1169    -1.2259 H       
  52 H52            1.1670     3.6755    -2.1287 H       
  53 H53           -1.3057     3.8585    -2.1041 H       
  54 H54           -1.2887     3.8490    -0.3242 H       
  55 H55           -5.3334    -8.1363    -7.1343 H       
  56 H56           -7.3734    -9.1940    -4.7795 H       
  57 H57           -6.6797   -10.1823    -6.0873 H       
  58 H58           -6.3452   -10.5932    -4.3880 H       
@<TRIPOS>BOND
   1    1    2 1
   2    1   22 1
   3    1   20 1
   4    1   32 1
   5    2    3 1
   6    2    6 am
   7    3    4 1
   8    3   33 1
   9    3   34 1
  10    4    8 ar
  11    4    5 ar
  12    5    6 1
  13    5   11 ar
  14    6    7 2
  15    8    9 ar
  16    8   35 1
  17    9   10 ar
  18    9   19 1
  19   10   11 ar
  20   10   12 1
  21   11   36 1
  22   12   13 1
  23   12   37 1
  24   12   38 1
  25   13   15 ar
  26   13   14 ar
  27   14   18 ar
  28   14   39 1
  29   15   16 ar
  30   15   40 1
  31   16   17 ar
  32   16   41 1
  33   17   18 ar
  34   17   26 1
  35   19   42 1
  36   19   43 1
  37   19   44 1
  38   20   21 1
  39   20   25 1
  40   20   45 1
  41   21   46 1
  42   22   23 1
  43   22   47 1
  44   22   48 1
  45   23   24 1
  46   23   49 1
  47   23   50 1
  48   24   25 1
  49   24   51 1
  50   24   52 1
  51   25   53 1
  52   25   54 1
  53   26   28 1
  54   26   27 2
  55   27   30 1
  56   28   29 2
  57   29   30 1
  58   29   55 1
  59   30   31 1
  60   31   56 1
  61   31   57 1
  62   31   58 1

#	End of record

