#	Name: ASD01911946
#	Creating user name:	WinNT
#	Creation time:	15. 06. 2019 19:58

#	Modifying user name:	WinNT
#	Modification time:	15. 06. 2019 19:58

#	Program:	/corina/corina34_cracker 3.40 0067  02.08.2006

@<TRIPOS>MOLECULE
ASD01911946
  38   40    0    0    0
SMALL
NO_CHARGES


@<TRIPOS>ATOM
   1 C1             0.7748     1.1509    -0.1306 C.ar    
   2 C2             0.5667    -0.2264    -0.1275 C.ar    
   3 C3             1.6754    -1.0609    -0.2486 C.ar    
   4 N4             2.8766    -0.5191    -0.3614 N.ar    
   5 C5             3.0316     0.7897    -0.3602 C.ar    
   6 N6             2.0085     1.6129    -0.2477 N.ar    
   7 N7            -0.7204    -0.7570    -0.0055 N.pl3   
   8 C8            -0.9083    -2.1428    -0.0044 C.ar    
   9 C9            -1.3080    -4.1879    -1.2011 C.ar    
  10 C10           -1.2825    -4.8902    -0.0107 C.ar    
  11 C11           -1.0751    -4.2209     1.1884 C.ar    
  12 C12           -0.8878    -2.8455     1.1913 C.ar    
  13 N13           -1.0496    -4.9334     2.3924 N.am    
  14 C14           -1.5528    -4.3801     3.5136 C.2     
  15 C15           -1.6204    -5.1713     4.7640 C.ar    
  16 O16           -1.9512    -3.2320     3.4987 O.2     
  17 C17           -2.1415    -4.5938     5.9190 C.ar    
  18 C18           -2.1990    -5.3464     7.0822 C.ar    
  19 C19           -1.7333    -6.6506     7.0495 C.ar    
  20 C20           -1.2267    -7.1623     5.8632 C.ar    
  21 N21           -1.1887    -6.4270     4.7725 N.ar    
  22 Cl22          -0.6410    -8.7958     5.8159 Cl      
  23 C23           -1.1218    -2.8179    -1.2025 C.ar    
  24 C24           -1.8729     0.1385     0.1213 C.3     
  25 F25           -1.1476    -2.1342    -2.3675 F       
  26 H26           -0.0593     1.8314    -0.0433 H       
  27 H27            1.5559    -2.1343    -0.2500 H       
  28 H28            4.0264     1.1997    -0.4541 H       
  29 H29           -1.4695    -4.7109    -2.1321 H       
  30 H30           -1.4286    -5.9603    -0.0127 H       
  31 H31           -0.7260    -2.3236     2.1229 H       
  32 H32           -0.6698    -5.8255     2.4201 H       
  33 H33           -2.4956    -3.5735     5.9091 H       
  34 H34           -2.5976    -4.9251     7.9932 H       
  35 H35           -1.7639    -7.2631     7.9385 H       
  36 H36           -2.2610     0.3737    -0.8697 H       
  37 H37           -2.6498    -0.3502     0.7092 H       
  38 H38           -1.5653     1.0584     0.6187 H       
@<TRIPOS>BOND
   1    1    2 ar
   2    1    6 ar
   3    1   26 1
   4    2    3 ar
   5    2    7 1
   6    3    4 ar
   7    3   27 1
   8    4    5 ar
   9    5    6 ar
  10    5   28 1
  11    7    8 1
  12    7   24 1
  13    8   23 ar
  14    8   12 ar
  15    9   10 ar
  16    9   23 ar
  17    9   29 1
  18   10   11 ar
  19   10   30 1
  20   11   12 ar
  21   11   13 1
  22   12   31 1
  23   13   14 am
  24   13   32 1
  25   14   15 1
  26   14   16 2
  27   15   17 ar
  28   15   21 ar
  29   17   18 ar
  30   17   33 1
  31   18   19 ar
  32   18   34 1
  33   19   20 ar
  34   19   35 1
  35   20   21 ar
  36   20   22 1
  37   23   25 1
  38   24   36 1
  39   24   37 1
  40   24   38 1

#	End of record

