#	Name: ASD01120037
#	Creating user name:	WinNT
#	Creation time:	15. 06. 2019 18:58

#	Modifying user name:	WinNT
#	Modification time:	15. 06. 2019 18:58

#	Program:	/corina/corina34_cracker 3.40 0067  02.08.2006

@<TRIPOS>MOLECULE
ASD01120037
  55   58    0    0    0
SMALL
NO_CHARGES


@<TRIPOS>ATOM
   1 C1             0.1543     1.8080    -0.4780 C.ar    
   2 C2             0.2579     0.4202    -0.6468 C.ar    
   3 C3            -0.8699    -0.3690    -0.6927 C.ar    
   4 C4            -2.1323     0.2238    -0.5691 C.ar    
   5 C5            -2.2292     1.6272    -0.3988 C.ar    
   6 C6            -1.0671     2.4063    -0.3503 C.ar    
   7 N7            -3.2618    -0.5005    -0.6077 N.ar    
   8 C8            -4.4305     0.0833    -0.4896 C.ar    
   9 N9            -4.5696     1.3897    -0.3294 N.ar    
  10 C10           -3.5187     2.1976    -0.2772 C.ar    
  11 N11           -3.6786     3.5586    -0.1101 N.pl3   
  12 C12           -4.9602     4.1170    -0.1103 C.ar    
  13 O13            1.2823     2.5662    -0.4353 O.3     
  14 O14            1.4840    -0.1523    -0.7668 O.3     
  15 C15           -5.9605     3.5578    -0.8913 C.ar    
  16 C16           -7.2355     4.1172    -0.8877 C.ar    
  17 C17           -7.4996     5.2358    -0.0996 C.ar    
  18 C18           -6.4982     5.7872     0.6751 C.ar    
  19 C19           -5.2341     5.2296     0.6768 C.ar    
  20 C20           -8.3104     3.5241    -1.7215 C.ar    
  21 C21            1.1113     3.9743    -0.2613 C.3     
  22 C22            2.4811     4.6553    -0.2379 C.3     
  23 C23            1.5239    -1.5706    -0.9365 C.3     
  24 C24            2.9788    -2.0296    -1.0529 C.3     
  25 C25           -8.6474     2.1803    -1.5754 C.ar    
  26 C26           -9.6484     1.6339    -2.3532 C.ar    
  27 C27          -10.3163     2.4180    -3.2762 C.ar    
  28 C28           -9.9857     3.7530    -3.4253 C.ar    
  29 C29           -8.9903     4.3109    -2.6493 C.ar    
  30 C30           -8.6313     5.7653    -2.8129 C.3     
  31 H31           -0.7812    -1.4374    -0.8234 H       
  32 H32           -1.1362     3.4763    -0.2206 H       
  33 H33           -5.3191    -0.5295    -0.5251 H       
  34 H34           -2.9018     4.1275     0.0074 H       
  35 H35           -5.7510     2.6911    -1.5007 H       
  36 H36           -8.4876     5.6717    -0.0949 H       
  37 H37           -6.7050     6.6543     1.2848 H       
  38 H38           -4.4544     5.6644     1.2847 H       
  39 H39            0.5211     4.3733    -1.0863 H       
  40 H40            0.5950     4.1640     0.6797 H       
  41 H41            3.0712     4.2563     0.5871 H       
  42 H42            2.9973     4.4656    -1.1790 H       
  43 H43            2.3507     5.7293    -0.1052 H       
  44 H44            1.0585    -2.0526    -0.0768 H       
  45 H45            0.9833    -1.8435    -1.8428 H       
  46 H46            3.4442    -1.5476    -1.9126 H       
  47 H47            3.5194    -1.7568    -0.1466 H       
  48 H48            3.0092    -3.1115    -1.1823 H       
  49 H49           -8.1262     1.5670    -0.8552 H       
  50 H50           -9.9102     0.5921    -2.2411 H       
  51 H51          -11.0986     1.9864    -3.8829 H       
  52 H52          -10.5103     4.3607    -4.1478 H       
  53 H53           -9.1716     6.3581    -2.0748 H       
  54 H54           -7.5587     5.8934    -2.6672 H       
  55 H55           -8.9040     6.0963    -3.8149 H       
@<TRIPOS>BOND
   1    1    2 ar
   2    1   13 1
   3    1    6 ar
   4    2    3 ar
   5    2   14 1
   6    3    4 ar
   7    3   31 1
   8    4    5 ar
   9    4    7 ar
  10    5    6 ar
  11    5   10 ar
  12    6   32 1
  13    7    8 ar
  14    8    9 ar
  15    8   33 1
  16    9   10 ar
  17   10   11 1
  18   11   12 1
  19   11   34 1
  20   12   15 ar
  21   12   19 ar
  22   13   21 1
  23   14   23 1
  24   15   16 ar
  25   15   35 1
  26   16   17 ar
  27   16   20 1
  28   17   18 ar
  29   17   36 1
  30   18   19 ar
  31   18   37 1
  32   19   38 1
  33   20   25 ar
  34   20   29 ar
  35   21   22 1
  36   21   39 1
  37   21   40 1
  38   22   41 1
  39   22   42 1
  40   22   43 1
  41   23   24 1
  42   23   44 1
  43   23   45 1
  44   24   46 1
  45   24   47 1
  46   24   48 1
  47   25   26 ar
  48   25   49 1
  49   26   27 ar
  50   26   50 1
  51   27   28 ar
  52   27   51 1
  53   28   29 ar
  54   28   52 1
  55   29   30 1
  56   30   53 1
  57   30   54 1
  58   30   55 1

#	End of record

