#	Name: ASD01816948
#	Creating user name:	WinNT
#	Creation time:	15. 06. 2019 19:36

#	Modifying user name:	WinNT
#	Modification time:	15. 06. 2019 19:36

#	Program:	/corina/corina34_cracker 3.40 0067  02.08.2006

@<TRIPOS>MOLECULE
ASD01816948
  69   74    0    0    0
SMALL
NO_CHARGES


@<TRIPOS>ATOM
   1 C1            -0.6286    -1.1255     1.1946 C.ar    
   2 N2            -0.3112    -2.3878     0.9524 N.ar    
   3 C3             0.9253    -2.7854     0.7587 C.ar    
   4 C4             1.9759    -1.8565     0.8043 C.ar    
   5 C5             1.6621    -0.4981     1.0621 C.ar    
   6 C6             0.3218    -0.1468     1.2588 C.ar    
   7 C7             3.3161    -2.2403     0.6018 C.ar    
   8 C8             4.3182    -1.3288     0.6490 C.ar    
   9 C9             4.0608     0.0274     0.9010 C.ar    
  10 C10            2.7444     0.4776     1.1117 C.ar    
  11 C11            5.1411     1.0220     0.9539 C.2     
  12 N12            4.7950     2.3064     1.2027 N.am    
  13 C13            3.4953     2.6442     1.3939 C.2     
  14 N14            2.5229     1.7809     1.3502 N.2     
  15 O15            6.3034     0.7027     0.7809 O.2     
  16 C16            3.6406    -3.6865     0.3289 C.3     
  17 C17            3.4844    -3.9672    -1.1434 C.ar    
  18 C18            4.5627    -3.8040    -1.9942 C.ar    
  19 C19            4.4255    -4.0601    -3.3434 C.ar    
  20 C20            3.1976    -4.4838    -3.8481 C.ar    
  21 C21            2.1146    -4.6465    -2.9864 C.ar    
  22 C22            2.2646    -4.3926    -1.6381 C.ar    
  23 C23            5.8317     3.3395     1.2665 C.3     
  24 C24            5.5613     4.4002     0.1974 C.3     
  25 C25            5.8155     3.9937     2.6495 C.3     
  26 C26            6.8982     5.0726     2.7161 C.3     
  27 C27            6.6278     6.1333     1.6470 C.3     
  28 C28            6.6440     5.4791     0.2640 C.3     
  29 O29            6.0681     3.0031     3.6479 O.3     
  30 C30            3.0438    -4.7602    -5.2976 C.ar    
  31 C31            4.1208    -4.5995    -6.1647 C.ar    
  32 N32            3.9892    -4.8432    -7.4531 N.ar    
  33 C33            2.8394    -5.2474    -7.9721 C.ar    
  34 C34            1.7183    -5.4309    -7.1676 C.ar    
  35 C35            1.8155    -5.1915    -5.8110 C.ar    
  36 N36            2.7511    -5.4908    -9.3370 N.pl3   
  37 C37            1.4451    -5.7343    -9.9547 C.3     
  38 C38            3.9639    -5.5041   -10.1587 C.3     
  39 H39           -1.6658    -0.8623     1.3407 H       
  40 H40            1.1336    -3.8273     0.5648 H       
  41 H41            0.0445     0.8780     1.4570 H       
  42 H42            5.3360    -1.6532     0.4898 H       
  43 H43            3.2562     3.6789     1.5906 H       
  44 H44            4.6676    -3.8916     0.6310 H       
  45 H45            2.9613    -4.3242     0.8945 H       
  46 H46            5.5138    -3.4752    -1.6020 H       
  47 H47            5.2680    -3.9320    -4.0069 H       
  48 H48            1.1607    -4.9746    -3.3722 H       
  49 H49            1.4260    -4.5183    -0.9693 H       
  50 H50            6.8074     2.8866     1.0902 H       
  51 H51            5.5728     3.9341    -0.7879 H       
  52 H52            4.5856     4.8531     0.3737 H       
  53 H53            4.8399     4.4467     2.8257 H       
  54 H54            6.8867     5.5387     3.7013 H       
  55 H55            7.8739     4.6197     2.5398 H       
  56 H56            5.6521     6.5862     1.8233 H       
  57 H57            7.3991     6.9019     1.6945 H       
  58 H58            7.6196     5.0261     0.0878 H       
  59 H59            6.4513     6.2347    -0.4976 H       
  60 H60            6.0725     3.3476     4.5515 H       
  61 H61            5.0742    -4.2713    -5.7776 H       
  62 H62            0.7846    -5.7606    -7.5987 H       
  63 H63            0.9620    -5.3260    -5.1632 H       
  64 H64            0.6598    -5.5908    -9.2126 H       
  65 H65            1.2976    -5.0369   -10.7793 H       
  66 H66            1.4064    -6.7563   -10.3317 H       
  67 H67            4.3707    -6.5149   -10.1896 H       
  68 H68            3.7210    -5.1791   -11.1703 H       
  69 H69            4.7023    -4.8283    -9.7274 H       
@<TRIPOS>BOND
   1    1    2 ar
   2    1    6 ar
   3    1   39 1
   4    2    3 ar
   5    3    4 ar
   6    3   40 1
   7    4    5 ar
   8    4    7 ar
   9    5    6 ar
  10    5   10 ar
  11    6   41 1
  12    7    8 ar
  13    7   16 1
  14    8    9 ar
  15    8   42 1
  16    9   10 ar
  17    9   11 1
  18   10   14 1
  19   11   12 am
  20   11   15 2
  21   12   13 1
  22   12   23 1
  23   13   14 2
  24   13   43 1
  25   16   17 1
  26   16   44 1
  27   16   45 1
  28   17   18 ar
  29   17   22 ar
  30   18   19 ar
  31   18   46 1
  32   19   20 ar
  33   19   47 1
  34   20   21 ar
  35   20   30 1
  36   21   22 ar
  37   21   48 1
  38   22   49 1
  39   23   24 1
  40   23   25 1
  41   23   50 1
  42   24   28 1
  43   24   51 1
  44   24   52 1
  45   25   26 1
  46   25   29 1
  47   25   53 1
  48   26   27 1
  49   26   54 1
  50   26   55 1
  51   27   28 1
  52   27   56 1
  53   27   57 1
  54   28   58 1
  55   28   59 1
  56   29   60 1
  57   30   31 ar
  58   30   35 ar
  59   31   32 ar
  60   31   61 1
  61   32   33 ar
  62   33   34 ar
  63   33   36 1
  64   34   35 ar
  65   34   62 1
  66   35   63 1
  67   36   37 1
  68   36   38 1
  69   37   64 1
  70   37   65 1
  71   37   66 1
  72   38   67 1
  73   38   68 1
  74   38   69 1

#	End of record

