#	Name: ASD01811377
#	Creating user name:	WinNT
#	Creation time:	15. 06. 2019 19:26

#	Modifying user name:	WinNT
#	Modification time:	15. 06. 2019 19:26

#	Program:	/corina/corina34_cracker 3.40 0067  02.08.2006

@<TRIPOS>MOLECULE
ASD01811377
  55   59    0    0    0
SMALL
NO_CHARGES


@<TRIPOS>ATOM
   1 C1            -0.0167     1.3784     0.0096 C.ar    
   2 C2             0.0021    -0.0041     0.0020 C.ar    
   3 C3             1.2024    -0.6843    -0.0124 C.ar    
   4 C4             2.4053     0.0173    -0.0199 C.ar    
   5 C5             2.3742     1.4091    -0.0130 C.ar    
   6 C6             1.1742     2.0835     0.0020 C.ar    
   7 N7             3.7261    -0.4362    -0.0340 N.am    
   8 C8             4.6116     0.5786    -0.0379 C.2     
   9 C9             3.8099     1.8517    -0.0253 C.3     
  10 C10            4.1226     2.7250    -1.2431 C.3     
  11 N11            4.5805     4.0342    -0.7220 N.3     
  12 C12            5.1224     3.7640     0.6353 C.3     
  13 C13            4.1428     2.7061     1.2080 C.3     
  14 C14            5.6096     4.6169    -1.5934 C.3     
  15 C15            5.8770     6.0627    -1.1704 C.3     
  16 F16            4.6972     6.8065    -1.2802 F       
  17 F17            6.3213     6.0860     0.1560 F       
  18 O18            5.8208     0.4845    -0.0485 O.2     
  19 C19            4.1045    -1.8515    -0.0430 C.3     
  20 C20            4.2215    -2.3311    -1.4668 C.ar    
  21 C21            5.3666    -2.0550    -2.1966 C.ar    
  22 C22            5.4779    -2.4936    -3.5028 C.ar    
  23 C23            4.4366    -3.2137    -4.0836 C.ar    
  24 C24            3.2883    -3.4878    -3.3445 C.ar    
  25 C25            3.1885    -3.0501    -2.0389 C.ar    
  26 F26            6.3750    -1.3560    -1.6312 F       
  27 C27            4.5501    -3.6870    -5.4863 C.2     
  28 C28            5.6463    -3.4839    -6.3471 C.2     
  29 N29            5.3722    -4.0481    -7.4934 N.2     
  30 N30            4.1009    -4.6290    -7.4106 N.pl3   
  31 C31            3.6141    -4.4030    -6.1738 C.2     
  32 C32            3.4196    -5.3608    -8.4814 C.3     
  33 H33           -0.9585     1.9068     0.0169 H       
  34 H34           -0.9273    -0.5542     0.0077 H       
  35 H35            1.2090    -1.7643    -0.0174 H       
  36 H36            1.1621     3.1634     0.0072 H       
  37 H37            4.9102     2.2648    -1.8397 H       
  38 H38            3.2252     2.8573    -1.8475 H       
  39 H39            6.1322     3.3584     0.5721 H       
  40 H40            5.1081     4.6694     1.2420 H       
  41 H41            3.2452     3.1834     1.6013 H       
  42 H42            4.6294     2.1040     1.9753 H       
  43 H43            6.5288     4.0374    -1.5079 H       
  44 H44            5.2634     4.5987    -2.6268 H       
  45 H45            6.6406     6.4951    -1.8170 H       
  46 H46            5.0627    -1.9746     0.4618 H       
  47 H47            3.3432    -2.4344     0.4753 H       
  48 H48            6.3702    -2.2782    -4.0718 H       
  49 H49            2.4783    -4.0455    -3.7910 H       
  50 H50            2.2982    -3.2630    -1.4658 H       
  51 H51            6.5548    -2.9536    -6.1025 H       
  52 H52            2.6543    -4.7248    -5.7975 H       
  53 H53            3.6724    -6.4191    -8.4160 H       
  54 H54            2.3417    -5.2376    -8.3768 H       
  55 H55            3.7379    -4.9702    -9.4479 H       
@<TRIPOS>BOND
   1    1    2 ar
   2    1    6 ar
   3    1   33 1
   4    2    3 ar
   5    2   34 1
   6    3    4 ar
   7    3   35 1
   8    4    5 ar
   9    4    7 1
  10    5    6 ar
  11    5    9 1
  12    6   36 1
  13    7    8 am
  14    7   19 1
  15    8    9 1
  16    8   18 2
  17    9   10 1
  18    9   13 1
  19   10   11 1
  20   10   37 1
  21   10   38 1
  22   11   12 1
  23   11   14 1
  24   12   13 1
  25   12   39 1
  26   12   40 1
  27   13   41 1
  28   13   42 1
  29   14   15 1
  30   14   43 1
  31   14   44 1
  32   15   16 1
  33   15   17 1
  34   15   45 1
  35   19   20 1
  36   19   46 1
  37   19   47 1
  38   20   21 ar
  39   20   25 ar
  40   21   22 ar
  41   21   26 1
  42   22   23 ar
  43   22   48 1
  44   23   24 ar
  45   23   27 1
  46   24   25 ar
  47   24   49 1
  48   25   50 1
  49   27   28 1
  50   27   31 2
  51   28   29 2
  52   28   51 1
  53   29   30 1
  54   30   31 1
  55   30   32 1
  56   31   52 1
  57   32   53 1
  58   32   54 1
  59   32   55 1

#	End of record

