#	Name: ASD02560477
#	Creating user name:	WinNT
#	Creation time:	15. 06. 2019 20:25

#	Modifying user name:	WinNT
#	Modification time:	15. 06. 2019 20:25

#	Program:	/corina/corina34_cracker 3.40 0067  02.08.2006

@<TRIPOS>MOLECULE
ASD02560477
  43   46    0    0    0
SMALL
NO_CHARGES


@<TRIPOS>ATOM
   1 C1            -0.0190     0.9093     0.3785 C.2     
   2 C2             0.1138    -0.4721     0.1507 C.2     
   3 C3             1.3354    -1.0259     0.0157 C.2     
   4 N4             2.4633    -0.2541     0.0980 N.pl3   
   5 C5             2.3646     1.1005     0.3201 C.2     
   6 C6             1.0906     1.6901     0.4629 C.2     
   7 C7             3.7937    -0.5544    -0.0007 C.2     
   8 C8             4.4831     0.6285     0.1640 C.2     
   9 N9             3.5844     1.6113     0.3564 N.2     
  10 C10            5.9558     0.7891     0.1343 C.ar    
  11 N11            4.3473    -1.8156    -0.2250 N.3     
  12 C12            3.3167    -2.8608    -0.1670 C.3     
  13 C13            2.6389    -2.9850    -1.5331 C.3     
  14 C14            6.5420     1.7178    -0.7263 C.ar    
  15 C15            6.7618     0.0163     0.9711 C.ar    
  16 C16            3.9649    -4.1962     0.2039 C.3     
  17 C17            2.8915    -5.2848     0.2642 C.3     
  18 C18            2.2137    -5.4089    -1.1018 C.3     
  19 C19            1.5655    -4.0736    -1.4727 C.3     
  20 C20            7.9154     1.8631    -0.7497 C.ar    
  21 C21            8.7100     1.0902     0.0773 C.ar    
  22 C22            8.1347     0.1711     0.9384 C.ar    
  23 Cl23           6.0417    -1.1364     2.0511 Cl      
  24 Cl24           9.1404    -0.7946     1.9727 Cl      
  25 Cl25           5.5470     2.6884    -1.7663 Cl      
  26 H26           -0.9999     1.3493     0.4816 H       
  27 H27           -0.7676    -1.0927     0.0839 H       
  28 H28            1.4252    -2.0879    -0.1586 H       
  29 H29            0.9979     2.7518     0.6372 H       
  30 H30            4.8407    -1.8427    -1.1047 H       
  31 H31            2.5731    -2.5966     0.5849 H       
  32 H32            2.1771    -2.0336    -1.7973 H       
  33 H33            3.3825    -3.2492    -2.2850 H       
  34 H34            4.7085    -4.4604    -0.5480 H       
  35 H35            4.4478    -4.1078     1.1771 H       
  36 H36            3.3533    -6.2361     0.5285 H       
  37 H37            2.1479    -5.0206     1.0161 H       
  38 H38            2.9573    -5.6731    -1.8537 H       
  39 H39            1.4490    -6.1845    -1.0588 H       
  40 H40            0.8219    -3.8094    -0.7208 H       
  41 H41            1.0826    -4.1620    -2.4459 H       
  42 H42            8.3698     2.5818    -1.4156 H       
  43 H43            9.7834     1.2075     0.0549 H       
@<TRIPOS>BOND
   1    1    2 1
   2    1    6 2
   3    1   26 1
   4    2    3 2
   5    2   27 1
   6    3    4 1
   7    3   28 1
   8    4    5 1
   9    4    7 1
  10    5    6 1
  11    5    9 2
  12    6   29 1
  13    7    8 2
  14    7   11 1
  15    8    9 1
  16    8   10 1
  17   10   14 ar
  18   10   15 ar
  19   11   12 1
  20   11   30 1
  21   12   16 1
  22   12   13 1
  23   12   31 1
  24   13   19 1
  25   13   32 1
  26   13   33 1
  27   14   20 ar
  28   14   25 1
  29   15   23 1
  30   15   22 ar
  31   16   17 1
  32   16   34 1
  33   16   35 1
  34   17   18 1
  35   17   36 1
  36   17   37 1
  37   18   19 1
  38   18   38 1
  39   18   39 1
  40   19   40 1
  41   19   41 1
  42   20   21 ar
  43   20   42 1
  44   21   22 ar
  45   21   43 1
  46   22   24 1

#	End of record

