#	Name: ASD01915614
#	Creating user name:	WinNT
#	Creation time:	15. 06. 2019 20:05

#	Modifying user name:	WinNT
#	Modification time:	15. 06. 2019 20:05

#	Program:	/corina/corina34_cracker 3.40 0067  02.08.2006

@<TRIPOS>MOLECULE
ASD01915614
  44   47    0    0    0
SMALL
NO_CHARGES


@<TRIPOS>ATOM
   1 C1            -0.0043     1.4631     0.2179 C.2     
   2 N2             0.0615     0.1099    -0.0288 N.pl3   
   3 C3            -1.1510    -0.6742    -0.2926 C.3     
   4 C4            -2.3298    -0.0463     0.4491 C.3     
   5 N5            -2.4043     1.3988     0.2637 N.am    
   6 C6            -1.2916     2.1721     0.2680 C.2     
   7 C7             1.2784     1.9002     0.3943 C.2     
   8 C8             2.0745     0.7557     0.2526 C.2     
   9 N9             1.2813    -0.2615     0.0091 N.2     
  10 C10            3.5767     0.7020     0.3611 C.3     
  11 O11            4.0816     2.0106     0.6344 O.3     
  12 C12            5.4285     2.1378     0.7630 C.ar    
  13 O13           -1.3542     3.3860     0.3111 O.2     
  14 C14            5.9869     3.3797     1.0286 C.ar    
  15 C15            6.2469     1.0250     0.6346 C.ar    
  16 C16            7.6157     1.1569     0.7657 C.ar    
  17 C17            8.1703     2.3967     1.0247 C.ar    
  18 C18            7.3563     3.5063     1.1588 C.ar    
  19 C19           -3.6484     1.9977     0.0778 C.ar    
  20 C20           -4.8047     1.2645     0.3051 C.ar    
  21 C21           -6.0390     1.8751     0.1156 C.ar    
  22 C22           -6.0632     3.2065    -0.2973 C.ar    
  23 C23           -4.8719     3.8698    -0.5029 C.ar    
  24 N24           -3.7159     3.2631    -0.3089 N.ar    
  25 O25           -7.1926     1.1917     0.3270 O.3     
  26 C26           -8.4150     1.8986     0.1077 C.3     
  27 H27           -1.3555    -0.6787    -1.3632 H       
  28 H28           -1.0056    -1.6970     0.0549 H       
  29 H29           -3.2541    -0.4960     0.0863 H       
  30 H30           -2.2306    -0.2601     1.5133 H       
  31 H31            1.6072     2.9086     0.5982 H       
  32 H32            3.8586     0.0276     1.1697 H       
  33 H33            3.9960     0.3394    -0.5774 H       
  34 H34            5.3516     4.2468     1.1330 H       
  35 H35            5.8142     0.0563     0.4326 H       
  36 H36            8.2533     0.2908     0.6661 H       
  37 H37            9.2407     2.4978     1.1269 H       
  38 H38            7.7919     4.4737     1.3608 H       
  39 H39           -4.7464     0.2344     0.6243 H       
  40 H40           -7.0043     3.7124    -0.4547 H       
  41 H41           -4.8850     4.9012    -0.8228 H       
  42 H42           -8.4599     2.7615     0.7720 H       
  43 H43           -8.4594     2.2348    -0.9282 H       
  44 H44           -9.2581     1.2386     0.3119 H       
@<TRIPOS>BOND
   1    1    2 1
   2    1    7 2
   3    1    6 1
   4    2    3 1
   5    2    9 1
   6    3    4 1
   7    3   27 1
   8    3   28 1
   9    4    5 1
  10    4   29 1
  11    4   30 1
  12    5    6 am
  13    5   19 1
  14    6   13 2
  15    7    8 1
  16    7   31 1
  17    8    9 2
  18    8   10 1
  19   10   11 1
  20   10   32 1
  21   10   33 1
  22   11   12 1
  23   12   14 ar
  24   12   15 ar
  25   14   18 ar
  26   14   34 1
  27   15   16 ar
  28   15   35 1
  29   16   17 ar
  30   16   36 1
  31   17   18 ar
  32   17   37 1
  33   18   38 1
  34   19   20 ar
  35   19   24 ar
  36   20   21 ar
  37   20   39 1
  38   21   22 ar
  39   21   25 1
  40   22   23 ar
  41   22   40 1
  42   23   24 ar
  43   23   41 1
  44   25   26 1
  45   26   42 1
  46   26   43 1
  47   26   44 1

#	End of record

