#	Name: ASD09116025
#	Creating user name:	WinNT
#	Creation time:	15. 06. 2019 21:20

#	Modifying user name:	WinNT
#	Modification time:	15. 06. 2019 21:20

#	Program:	/corina/corina34_cracker 3.40 0067  02.08.2006

@<TRIPOS>MOLECULE
ASD09116025
  82   89    0    0    0
SMALL
NO_CHARGES


@<TRIPOS>ATOM
   1 C1            -0.1866     1.3960     0.3678 C.ar    
   2 C2            -0.1435     0.0047     0.3172 C.ar    
   3 C3            -1.3190    -0.6955     0.1954 C.ar    
   4 N4            -2.4600    -0.0074     0.1307 N.ar    
   5 N5            -2.5029     1.2750     0.1775 N.ar    
   6 C6            -1.4076     2.0300     0.3000 C.ar    
   7 N7            -1.3195    -2.0905     0.1403 N.pl3   
   8 N8            -0.1991    -2.9349     0.1972 N.2     
   9 C9            -0.6430    -4.1662     0.1128 C.2     
  10 N10           -1.9768    -4.1425     0.0064 N.2     
  11 C11           -2.4009    -2.8971     0.0273 C.2     
  12 N12            0.1476    -5.3151     0.1304 N.pl3   
  13 C13           -0.4545    -6.5798     0.1275 C.ar    
  14 C14            0.1769    -7.6565    -0.4772 C.ar    
  15 C15           -1.6930    -6.7730     0.7373 C.ar    
  16 C16           -2.2500    -8.0387     0.7107 C.ar    
  17 C17           -1.5611    -9.0695     0.0809 C.ar    
  18 N18           -0.3842    -8.8508    -0.4839 N.ar    
  19 N19           -3.7170    -2.4848    -0.0601 N.pl3   
  20 N20           -2.1132   -10.3479     0.0490 N.3     
  21 C21           -3.4533   -10.3278    -0.5538 C.3     
  22 C22           -1.2325   -11.2843    -0.6631 C.3     
  23 C23           -1.8352   -12.6900    -0.6072 C.3     
  24 N24           -3.1753   -12.6700    -1.2100 N.3     
  25 C25           -4.0560   -11.7336    -0.4979 C.3     
  26 C26           -3.7576   -14.0182    -1.2437 C.3     
  27 C27            1.1710     2.0395     0.5016 C.3     
  28 C28            1.8235     1.4760     1.7759 C.3     
  29 C29            1.8706    -0.0510     1.7210 C.3     
  30 C30            1.2519    -0.5609     0.4079 C.3     
  31 C31            2.0218     1.5710    -0.6916 C.3     
  32 C32            2.0695     0.0440    -0.7465 C.3     
  33 C33           -1.5026     3.5093     0.3503 C.ar    
  34 C34           -0.6209     4.2925    -0.3920 C.ar    
  35 C35           -0.7143     5.6687    -0.3417 C.ar    
  36 C36           -1.6807     6.2706     0.4436 C.ar    
  37 C37           -2.5588     5.4980     1.1826 C.ar    
  38 C38           -2.4781     4.1213     1.1359 C.ar    
  39 N39           -0.9768   -13.6212    -1.3516 N.3     
  40 C40           -5.2323   -13.9271    -1.6411 C.3     
  41 C41           -5.9908   -15.2397    -1.8472 C.3     
  42 C42           -6.2703   -14.3804    -0.6126 C.3     
  43 C43            0.2388     6.5170    -1.1435 C.3     
  44 H44            1.1145    -5.2383     0.1447 H       
  45 H45            1.1385    -7.5158    -0.9482 H       
  46 H46           -2.2054    -5.9537     1.2195 H       
  47 H47           -3.2080    -8.2242     1.1736 H       
  48 H48           -4.4261    -3.1411    -0.1463 H       
  49 H49           -3.9317    -1.5392    -0.0352 H       
  50 H50           -4.0902    -9.6369    -0.0015 H       
  51 H51           -3.3802   -10.0045    -1.5922 H       
  52 H52           -1.1342   -10.9718    -1.7028 H       
  53 H53           -0.2503   -11.2906    -0.1905 H       
  54 H54           -1.9083   -13.0133     0.4311 H       
  55 H55           -4.1543   -12.0460     0.5417 H       
  56 H56           -5.0382   -11.7272    -0.9705 H       
  57 H57           -3.2220   -14.6272    -1.9720 H       
  58 H58           -3.6746   -14.4746    -0.2573 H       
  59 H59            1.0909     3.1257     0.5457 H       
  60 H60            2.8379     1.8650     1.8637 H       
  61 H61            1.2446     1.7877     2.6453 H       
  62 H62            2.9073    -0.3820     1.7834 H       
  63 H63            1.3137    -0.4593     2.5643 H       
  64 H64            1.2397    -1.6503     0.3737 H       
  65 H65            1.5870     1.9515    -1.6158 H       
  66 H66            3.0348     1.9596    -0.5866 H       
  67 H67            3.1049    -0.2873    -0.6672 H       
  68 H68            1.6573    -0.2955    -1.6967 H       
  69 H69            0.1344     3.8235    -1.0052 H       
  70 H70           -1.7500     7.3477     0.4802 H       
  71 H71           -3.3113     5.9733     1.7944 H       
  72 H72           -3.1643     3.5192     1.7129 H       
  73 H73           -0.0486   -13.6513    -0.9571 H       
  74 H74           -1.3860   -14.5429    -1.3841 H       
  75 H75           -5.4946   -13.0877    -2.2851 H       
  76 H76           -6.7524   -15.2638    -2.6266 H       
  77 H77           -5.4392   -16.1682    -1.6998 H       
  78 H78           -5.9027   -14.7436     0.3471 H       
  79 H79           -7.2159   -13.8392    -0.5797 H       
  80 H80           -0.1848     6.7062    -2.1298 H       
  81 H81            0.4017     7.4647    -0.6301 H       
  82 H82            1.1890     5.9938    -1.2504 H       
@<TRIPOS>BOND
   1    1    2 ar
   2    1   27 1
   3    1    6 ar
   4    2    3 ar
   5    2   30 1
   6    3    4 ar
   7    3    7 1
   8    4    5 ar
   9    5    6 ar
  10    6   33 1
  11    7    8 1
  12    7   11 1
  13    8    9 2
  14    9   10 1
  15    9   12 1
  16   10   11 2
  17   11   19 1
  18   12   13 1
  19   12   44 1
  20   13   14 ar
  21   13   15 ar
  22   14   18 ar
  23   14   45 1
  24   15   16 ar
  25   15   46 1
  26   16   17 ar
  27   16   47 1
  28   17   18 ar
  29   17   20 1
  30   19   48 1
  31   19   49 1
  32   20   21 1
  33   20   22 1
  34   21   25 1
  35   21   50 1
  36   21   51 1
  37   22   23 1
  38   22   52 1
  39   22   53 1
  40   23   24 1
  41   23   39 1
  42   23   54 1
  43   24   25 1
  44   24   26 1
  45   25   55 1
  46   25   56 1
  47   26   40 1
  48   26   57 1
  49   26   58 1
  50   27   28 1
  51   27   31 1
  52   27   59 1
  53   28   29 1
  54   28   60 1
  55   28   61 1
  56   29   30 1
  57   29   62 1
  58   29   63 1
  59   30   32 1
  60   30   64 1
  61   31   32 1
  62   31   65 1
  63   31   66 1
  64   32   67 1
  65   32   68 1
  66   33   34 ar
  67   33   38 ar
  68   34   35 ar
  69   34   69 1
  70   35   36 ar
  71   35   43 1
  72   36   37 ar
  73   36   70 1
  74   37   38 ar
  75   37   71 1
  76   38   72 1
  77   39   73 1
  78   39   74 1
  79   40   41 1
  80   40   42 1
  81   40   75 1
  82   41   42 1
  83   41   76 1
  84   41   77 1
  85   42   78 1
  86   42   79 1
  87   43   80 1
  88   43   81 1
  89   43   82 1

#	End of record

