#	Name: ASD01916640
#	Creating user name:	WinNT
#	Creation time:	15. 06. 2019 20:07

#	Modifying user name:	WinNT
#	Modification time:	15. 06. 2019 20:07

#	Program:	/corina/corina34_cracker 3.40 0067  02.08.2006

@<TRIPOS>MOLECULE
ASD01916640
  49   52    0    0    0
SMALL
NO_CHARGES


@<TRIPOS>ATOM
   1 C1            -0.0171     1.4098     0.0098 C.ar    
   2 C2             0.0021    -0.0041     0.0020 C.ar    
   3 C3            -1.1925    -0.7251    -0.0015 C.ar    
   4 C4            -2.3851    -0.0631     0.0056 C.ar    
   5 C5            -2.4220     1.3395     0.0183 C.ar    
   6 C6            -1.2404     2.0769     0.0193 C.ar    
   7 N7             1.1602     2.0847     0.0022 N.2     
   8 C8             2.3011     1.4723    -0.0143 C.2     
   9 N9             2.4129     0.1029     0.0051 N.am    
  10 C10            1.3102    -0.6740    -0.0002 C.2     
  11 C11           -3.6832     2.0175     0.0296 C.1     
  12 O12            1.3957    -1.8884    -0.0063 O.2     
  13 C13           -4.7173     2.5733     0.0388 C.1     
  14 C14           -5.9785     3.2513     0.0500 C.ar    
  15 N15           -6.0134     4.5803     0.0621 N.ar    
  16 C16           -7.1529     5.2403     0.0722 C.ar    
  17 C17           -8.3629     4.5699     0.0707 C.ar    
  18 C18           -8.3737     3.1816     0.0583 C.ar    
  19 C19           -7.1639     2.5114     0.0425 C.ar    
  20 C20            3.5919     2.2667    -0.0808 C.3     
  21 C21            4.2019     2.0316    -1.4523 C.3     
  22 N22            5.0886     0.8708    -1.4608 N.3     
  23 C23            4.4059    -0.4012    -1.3356 C.3     
  24 C24            3.7466    -0.5088     0.0434 C.3     
  25 C25            5.0788     3.2060    -1.9154 C.3     
  26 C26            6.2033     2.5406    -2.7455 C.3     
  27 C27            5.9037     1.0217    -2.6828 C.3     
  28 F28            6.1610     2.9901    -4.0697 F       
  29 F29            7.4527     2.8134    -2.1782 F       
  30 H30           -1.1729    -1.8048    -0.0101 H       
  31 H31           -3.3085    -0.6232     0.0011 H       
  32 H32           -1.2720     3.1564     0.0289 H       
  33 H33           -7.1426     6.3202     0.0822 H       
  34 H34           -9.2912     5.1217     0.0795 H       
  35 H35           -9.3063     2.6370     0.0569 H       
  36 H36           -7.1357     1.4319     0.0325 H       
  37 H37            3.3811     3.3276     0.0537 H       
  38 H38            4.2781     1.9236     0.6934 H       
  39 H39            3.4046     1.8805    -2.1801 H       
  40 H40            3.6417    -0.4792    -2.1089 H       
  41 H41            5.1250    -1.2113    -1.4570 H       
  42 H42            4.3614     0.0080     0.7804 H       
  43 H43            3.6559    -1.5590     0.3208 H       
  44 H44            4.5014     3.8910    -2.5362 H       
  45 H45            5.4984     3.7301    -1.0567 H       
  46 H46            6.8294     0.4525    -2.5979 H       
  47 H47            5.3391     0.7067    -3.5604 H       
  48 Cl48          12.4527    11.3202     5.7804 Cl      
  49 H49           12.4527    12.6902     5.7804 H       
@<TRIPOS>BOND
   1    1    2 ar
   2    1    7 1
   3    1    6 ar
   4    2    3 ar
   5    2   10 1
   6    3    4 ar
   7    3   30 1
   8    4    5 ar
   9    4   31 1
  10    5    6 ar
  11    5   11 1
  12    6   32 1
  13    7    8 2
  14    8    9 1
  15    8   20 1
  16    9   10 am
  17    9   24 1
  18   10   12 2
  19   11   13 3
  20   13   14 1
  21   14   15 ar
  22   14   19 ar
  23   15   16 ar
  24   16   17 ar
  25   16   33 1
  26   17   18 ar
  27   17   34 1
  28   18   19 ar
  29   18   35 1
  30   19   36 1
  31   20   21 1
  32   20   37 1
  33   20   38 1
  34   21   22 1
  35   21   25 1
  36   21   39 1
  37   22   23 1
  38   22   27 1
  39   23   24 1
  40   23   40 1
  41   23   41 1
  42   24   42 1
  43   24   43 1
  44   25   26 1
  45   25   44 1
  46   25   45 1
  47   26   27 1
  48   26   28 1
  49   26   29 1
  50   27   46 1
  51   27   47 1
  52   48   49 1

#	End of record

