#	Name: ASD04880451
#	Creating user name:	WinNT
#	Creation time:	15. 06. 2019 20:53

#	Modifying user name:	WinNT
#	Modification time:	15. 06. 2019 20:53

#	Program:	/corina/corina34_cracker 3.40 0067  02.08.2006

@<TRIPOS>MOLECULE
ASD04880451
  51   53    0    0    0
SMALL
NO_CHARGES


@<TRIPOS>ATOM
   1 C1            -0.4371     2.5602    -0.7997 C.ar    
   2 C2            -0.2674     1.1838    -0.8110 C.ar    
   3 C3            -1.3585     0.3499    -0.6814 C.ar    
   4 C4            -2.6380     0.8916    -0.5379 C.ar    
   5 C5            -2.8085     2.2787    -0.5261 C.ar    
   6 C6            -1.7100     3.1077    -0.6512 C.ar    
   7 O7             0.6416     3.3774    -0.9283 O.3     
   8 C8             1.9175     2.7499    -1.0709 C.3     
   9 C9            -3.8057     0.0023    -0.3997 C.2     
  10 C10           -3.7728    -1.5050    -0.5144 C.3     
  11 C11           -5.2386    -1.9265    -0.2900 C.3     
  12 N12           -5.9364    -0.6487    -0.0763 N.am    
  13 N13           -5.0103     0.3893    -0.1570 N.2     
  14 C14           -7.2550    -0.5059     0.1629 C.2     
  15 O15           -7.9858    -1.4737     0.1292 O.2     
  16 C16           -7.8217     0.8558     0.4721 C.3     
  17 O17           -9.2479     0.7792     0.5172 O.3     
  18 C18           -7.3014     1.3252     1.8063 C.ar    
  19 C19           -9.8827     1.0152    -0.7411 C.3     
  20 C20           -7.8985     0.8880     2.9735 C.ar    
  21 C21           -7.4212     1.3188     4.1975 C.ar    
  22 C22           -6.3466     2.1862     4.2538 C.ar    
  23 C23           -5.7487     2.6228     3.0862 C.ar    
  24 C24           -6.2232     2.1888     1.8627 C.ar    
  25 C25           -4.5774     3.5690     3.1476 C.3     
  26 O26           -1.8723     4.4579    -0.6396 O.3     
  27 C27           -3.2133     4.9498    -0.6006 C.3     
  28 H28            0.7214     0.7638    -0.9220 H       
  29 H29           -1.2236    -0.7216    -0.6912 H       
  30 H30           -3.7960     2.7017    -0.4153 H       
  31 H31            2.1195     2.1339    -0.1946 H       
  32 H32            1.9167     2.1235    -1.9629 H       
  33 H33            2.6896     3.5136    -1.1640 H       
  34 H34           -3.4361    -1.8057    -1.5065 H       
  35 H35           -3.1299    -1.9331     0.2547 H       
  36 H36           -5.6306    -2.4350    -1.1709 H       
  37 H37           -5.3243    -2.5624     0.5911 H       
  38 H38           -7.5200     1.5596    -0.3036 H       
  39 H39           -9.6253     2.0130    -1.0965 H       
  40 H40           -9.5435     0.2733    -1.4640 H       
  41 H41          -10.9636     0.9393    -0.6226 H       
  42 H42           -8.7382     0.2102     2.9295 H       
  43 H43           -7.8882     0.9777     5.1096 H       
  44 H44           -5.9742     2.5232     5.2099 H       
  45 H45           -5.7561     2.5299     0.9506 H       
  46 H46           -3.6572     2.9999     3.2802 H       
  47 H47           -4.5217     4.1389     2.2201 H       
  48 H48           -4.7061     4.2525     3.9869 H       
  49 H49           -3.2036     6.0375    -0.6709 H       
  50 H50           -3.7764     4.5367    -1.4375 H       
  51 H51           -3.6830     4.6505     0.3363 H       
@<TRIPOS>BOND
   1    1    2 ar
   2    1    7 1
   3    1    6 ar
   4    2    3 ar
   5    2   28 1
   6    3    4 ar
   7    3   29 1
   8    4    5 ar
   9    4    9 1
  10    5    6 ar
  11    5   30 1
  12    6   26 1
  13    7    8 1
  14    8   31 1
  15    8   32 1
  16    8   33 1
  17    9   10 1
  18    9   13 2
  19   10   11 1
  20   10   34 1
  21   10   35 1
  22   11   12 1
  23   11   36 1
  24   11   37 1
  25   12   13 1
  26   12   14 am
  27   14   15 2
  28   14   16 1
  29   16   17 1
  30   16   18 1
  31   16   38 1
  32   17   19 1
  33   18   20 ar
  34   18   24 ar
  35   19   39 1
  36   19   40 1
  37   19   41 1
  38   20   21 ar
  39   20   42 1
  40   21   22 ar
  41   21   43 1
  42   22   23 ar
  43   22   44 1
  44   23   24 ar
  45   23   25 1
  46   24   45 1
  47   25   46 1
  48   25   47 1
  49   25   48 1
  50   26   27 1
  51   27   49 1
  52   27   50 1
  53   27   51 1

#	End of record

