#	Name: ASD01880427
#	Creating user name:	WinNT
#	Creation time:	15. 06. 2019 19:40

#	Modifying user name:	WinNT
#	Modification time:	15. 06. 2019 19:40

#	Program:	/corina/corina34_cracker 3.40 0067  02.08.2006

@<TRIPOS>MOLECULE
ASD01880427
  35   36    0    0    0
SMALL
NO_CHARGES


@<TRIPOS>ATOM
   1 O1             0.0015    -0.0037     0.0050 O.2     
   2 C2            -0.0145     1.2090     0.0135 C.2     
   3 C3            -1.3292     1.9450     0.0439 C.3     
   4 C4            -1.4461     2.8318    -1.1974 C.3     
   5 C5            -1.3776     1.9618    -2.4541 C.3     
   6 C6            -2.5270     0.9521    -2.4386 C.3     
   7 C7            -2.4102     0.0653    -1.1973 C.3     
   8 C8            -2.4787     0.9353     0.0593 C.3     
   9 C9            -2.3636     0.0618     1.2819 C.2     
  10 O10           -1.4554     0.2296     2.0610 O.2     
  11 O11           -3.2701    -0.9026     1.5055 O.3     
  12 N12            1.1435     1.8984     0.0013 N.am    
  13 C13            2.3633     1.2187     0.0917 C.ar    
  14 C14            3.4749     1.6908    -0.5936 C.ar    
  15 C15            4.6789     1.0178    -0.5023 C.ar    
  16 Cl16           6.0693     1.6076    -1.3583 Cl      
  17 C17            4.7769    -0.1255     0.2711 C.ar    
  18 C18            3.6705    -0.5983     0.9547 C.ar    
  19 C19            2.4657     0.0742     0.8713 C.ar    
  20 Cl20           3.7974    -2.0336     1.9230 Cl      
  21 H21           -1.3780     2.5648     0.9392 H       
  22 H22           -2.3970     3.3642    -1.1754 H       
  23 H23           -0.6272     3.5511    -1.2084 H       
  24 H24           -1.4608     2.5936    -3.3384 H       
  25 H25           -0.4267     1.4295    -2.4761 H       
  26 H26           -3.4779     1.4845    -2.4166 H       
  27 H27           -2.4782     0.3323    -3.3339 H       
  28 H28           -3.2291    -0.6540    -1.1863 H       
  29 H29           -1.4593    -0.4670    -1.2193 H       
  30 H30           -3.4296     1.4677     0.0813 H       
  31 H31           -3.1546    -1.4373     2.3029 H       
  32 H32            1.1314     2.8657    -0.0700 H       
  33 H33            3.3988     2.5828    -1.1977 H       
  34 H34            5.7185    -0.6499     0.3411 H       
  35 H35            1.6025    -0.2950     1.4053 H       
@<TRIPOS>BOND
   1    1    2 2
   2    2   12 am
   3    2    3 1
   4    3    4 1
   5    3    8 1
   6    3   21 1
   7    4    5 1
   8    4   22 1
   9    4   23 1
  10    5    6 1
  11    5   24 1
  12    5   25 1
  13    6    7 1
  14    6   26 1
  15    6   27 1
  16    7    8 1
  17    7   28 1
  18    7   29 1
  19    8    9 1
  20    8   30 1
  21    9   10 2
  22    9   11 1
  23   11   31 1
  24   12   13 1
  25   12   32 1
  26   13   14 ar
  27   13   19 ar
  28   14   15 ar
  29   14   33 1
  30   15   16 1
  31   15   17 ar
  32   17   18 ar
  33   17   34 1
  34   18   19 ar
  35   18   20 1
  36   19   35 1

#	End of record

