#	Name: ASD06170230
#	Creating user name:	WinNT
#	Creation time:	15. 06. 2019 21:05

#	Modifying user name:	WinNT
#	Modification time:	15. 06. 2019 21:05

#	Program:	/corina/corina34_cracker 3.40 0067  02.08.2006

@<TRIPOS>MOLECULE
ASD06170230
  55   59    0    0    0
SMALL
NO_CHARGES


@<TRIPOS>ATOM
   1 C1             0.2860     1.3820    -0.7069 C.2     
   2 C2             0.5420    -0.0159    -0.7739 C.2     
   3 C3             1.7177    -0.4817    -0.1870 C.2     
   4 C4             2.5619     0.4522     0.4249 C.2     
   5 N5             2.2495     1.7201     0.4409 N.2     
   6 N6             1.1765     2.1815    -0.0893 N.am    
   7 C7            -0.3990    -0.9356    -1.4372 C.2     
   8 O8            -0.0886    -2.0977    -1.6173 O.2     
   9 N9            -1.6037    -0.4890    -1.8444 N.am    
  10 C10            0.9239     3.5555    -0.0240 C.ar    
  11 C11           -0.2261     4.0231     0.5996 C.ar    
  12 C12           -0.4722     5.3805     0.6627 C.ar    
  13 C13            0.4244     6.2740     0.1057 C.ar    
  14 C14            1.5699     5.8120    -0.5162 C.ar    
  15 C15            1.8253     4.4562    -0.5775 C.ar    
  16 O16           -0.7229     1.8501    -1.2060 O.2     
  17 C17           -2.4576    -1.3347    -2.5625 C.ar    
  18 C18           -3.3153    -0.8064    -3.5188 C.ar    
  19 C19           -4.1580    -1.6421    -4.2272 C.ar    
  20 C20           -4.1463    -3.0102    -3.9821 C.ar    
  21 C21           -3.2899    -3.5363    -3.0269 C.ar    
  22 C22           -2.4431    -2.7022    -2.3229 C.ar    
  23 O23           -4.9752    -3.8328    -4.6788 O.3     
  24 N24           -4.0025    -4.6553    -8.6014 N.ar    
  25 C25           -3.2927    -3.7929    -7.9122 C.ar    
  26 C26           -3.5902    -3.4906    -6.5896 C.ar    
  27 C27           -4.6619    -4.1081    -5.9686 C.ar    
  28 C28           -5.4193    -5.0351    -6.7202 C.ar    
  29 C29           -6.5197    -5.6996    -6.1595 C.ar    
  30 C30           -7.2298    -6.5859    -6.9094 C.ar    
  31 C31           -6.8757    -6.8446    -8.2367 C.ar    
  32 C32           -5.8010    -6.2085    -8.8156 C.ar    
  33 C33           -5.0518    -5.2891    -8.0642 C.ar    
  34 O34           -7.6004    -7.7344    -8.9636 O.3     
  35 C35           -8.7035    -8.3625    -8.3073 C.3     
  36 F36           -4.9930    -1.1294    -5.1573 F       
  37 H37            1.9695    -1.5318    -0.2037 H       
  38 H38            3.4796     0.1213     0.8883 H       
  39 H39           -1.8791     0.4183    -1.6399 H       
  40 H40           -0.9271     3.3258     1.0342 H       
  41 H41           -1.3661     5.7447     1.1473 H       
  42 H42            0.2293     7.3351     0.1561 H       
  43 H43            2.2679     6.5125    -0.9505 H       
  44 H44            2.7223     4.0963    -1.0594 H       
  45 H45           -3.3241     0.2568    -3.7085 H       
  46 H46           -3.2818    -4.5993    -2.8363 H       
  47 H47           -1.7728    -3.1135    -1.5827 H       
  48 H48           -2.4542    -3.3049    -8.3865 H       
  49 H49           -2.9873    -2.7769    -6.0478 H       
  50 H50           -6.8027    -5.5088    -5.1349 H       
  51 H51           -8.0765    -7.0956    -6.4738 H       
  52 H52           -5.5359    -6.4151    -9.8419 H       
  53 H53           -8.3431    -8.9168    -7.4408 H       
  54 H54           -9.4139    -7.6021    -7.9826 H       
  55 H55           -9.1951    -9.0475    -8.9981 H       
@<TRIPOS>BOND
   1    1    2 1
   2    1    6 am
   3    1   16 2
   4    2    3 2
   5    2    7 1
   6    3    4 1
   7    3   37 1
   8    4    5 2
   9    4   38 1
  10    5    6 1
  11    6   10 1
  12    7    8 2
  13    7    9 am
  14    9   17 1
  15    9   39 1
  16   10   11 ar
  17   10   15 ar
  18   11   12 ar
  19   11   40 1
  20   12   13 ar
  21   12   41 1
  22   13   14 ar
  23   13   42 1
  24   14   15 ar
  25   14   43 1
  26   15   44 1
  27   17   18 ar
  28   17   22 ar
  29   18   19 ar
  30   18   45 1
  31   19   20 ar
  32   19   36 1
  33   20   21 ar
  34   20   23 1
  35   21   22 ar
  36   21   46 1
  37   22   47 1
  38   23   27 1
  39   24   25 ar
  40   24   33 ar
  41   25   26 ar
  42   25   48 1
  43   26   27 ar
  44   26   49 1
  45   27   28 ar
  46   28   29 ar
  47   28   33 ar
  48   29   30 ar
  49   29   50 1
  50   30   31 ar
  51   30   51 1
  52   31   32 ar
  53   31   34 1
  54   32   33 ar
  55   32   52 1
  56   34   35 1
  57   35   53 1
  58   35   54 1
  59   35   55 1

#	End of record

