#	Name: ASD09116165
#	Creating user name:	WinNT
#	Creation time:	15. 06. 2019 21:20

#	Modifying user name:	WinNT
#	Modification time:	15. 06. 2019 21:20

#	Program:	/corina/corina34_cracker 3.40 0067  02.08.2006

@<TRIPOS>MOLECULE
ASD09116165
  83   90    0    0    0
SMALL
NO_CHARGES


@<TRIPOS>ATOM
   1 N1            -0.0266     1.4808     0.1052 N.2     
   2 C2            -0.0140     0.0097     0.1910 C.3     
   3 C3             1.2225     1.8593     0.0812 C.2     
   4 N4             2.0842     0.8235     0.1404 N.2     
   5 C5             1.4646    -0.3259     0.2084 C.2     
   6 N6             1.6191     3.1791     0.0037 N.pl3   
   7 C7             2.9773     3.5091     0.0982 C.ar    
   8 C8             3.4711     4.6162    -0.5781 C.ar    
   9 C9             3.8284     2.7317     0.8732 C.ar    
  10 C10            5.1682     3.0575     0.9663 C.ar    
  11 C11            5.6632     4.1637     0.2837 C.ar    
  12 C12            4.8106     4.9422    -0.4859 C.ar    
  13 N13            2.0277    -1.5620     0.2792 N.pl3   
  14 C14           -0.6794    -0.4545     1.4610 C.ar    
  15 C15           -1.3071     0.4673     2.2732 C.ar    
  16 N16           -0.6560    -1.7376     1.7744 N.ar    
  17 C17           -1.2213    -2.1926     2.8703 C.ar    
  18 C18           -1.8673    -1.3307     3.7430 C.ar    
  19 C19           -1.9222     0.0261     3.4516 C.ar    
  20 C20           -1.3372    -3.6023     3.4566 C.3     
  21 C21           -2.8485    -3.9619     3.2983 C.3     
  22 C22           -3.5680    -2.9979     4.2721 C.3     
  23 C23           -2.4080    -2.1643     4.9039 C.3     
  24 C24           -1.2876    -3.2653     4.9923 C.3     
  25 C25           -2.6049     0.9781     4.3622 C.ar    
  26 C26           -1.9560     2.1412     4.7722 C.ar    
  27 N27            7.0212     4.4951     0.3778 N.3     
  28 C28            7.6621     4.4705    -0.9444 C.3     
  29 C29            9.1207     4.9141    -0.8097 C.3     
  30 N30            9.8172     4.0209     0.1267 N.3     
  31 C31            9.1763     4.0455     1.4489 C.3     
  32 C32            7.7177     3.6019     1.3141 C.3     
  33 C33           11.2411     4.3684     0.2253 C.3     
  34 C34           -2.5960     3.0234     5.6189 C.ar    
  35 C35           -3.8791     2.7549     6.0604 C.ar    
  36 C36           -4.5277     1.6017     5.6569 C.ar    
  37 C37           -3.8994     0.7153     4.8058 C.ar    
  38 F38            5.9966     2.3022     1.7203 F       
  39 C39           11.9044     3.5018     1.2977 C.3     
  40 C40           13.3874     3.8637     1.4004 C.3     
  41 C41           14.0673     3.6163     0.0523 C.3     
  42 C42           13.4040     4.4829    -1.0201 C.3     
  43 C43           11.9210     4.1209    -1.1228 C.3     
  44 H44           -0.5005    -0.4304    -0.6795 H       
  45 H45            0.9574     3.8781    -0.1163 H       
  46 H46            2.8080     5.2228    -1.1770 H       
  47 H47            3.4431     1.8732     1.4032 H       
  48 H48            5.1948     5.8012    -1.0159 H       
  49 H49            2.9932    -1.6557     0.2826 H       
  50 H50            1.4639    -2.3499     0.3264 H       
  51 H51           -1.3237     1.5132     2.0046 H       
  52 H52           -0.6254    -4.3391     3.0842 H       
  53 H53           -3.1777    -3.7862     2.2742 H       
  54 H54           -3.0268    -4.9982     3.5854 H       
  55 H55           -4.2540    -2.3478     3.7291 H       
  56 H56           -4.0992    -3.5581     5.0416 H       
  57 H57           -2.6475    -1.6206     5.8178 H       
  58 H58           -1.5849    -4.1110     5.6124 H       
  59 H59           -0.3249    -2.8541     5.2959 H       
  60 H60           -0.9541     2.3516     4.4283 H       
  61 H61            7.6256     3.4584    -1.3475 H       
  62 H62            7.1363     5.1490    -1.6161 H       
  63 H63            9.6061     4.8689    -1.7846 H       
  64 H64            9.1567     5.9360    -0.4323 H       
  65 H65            9.7021     3.3670     2.1206 H       
  66 H66            9.2128     5.0576     1.8519 H       
  67 H67            7.2323     3.6471     2.2890 H       
  68 H68            7.6817     2.5799     0.9367 H       
  69 H69           11.3407     5.4198     0.4949 H       
  70 H70           -2.0939     3.9250     5.9375 H       
  71 H71           -4.3761     3.4480     6.7229 H       
  72 H72           -5.5294     1.3969     6.0050 H       
  73 H73           -4.4068    -0.1848     4.4914 H       
  74 H74           11.4200     3.6781     2.2581 H       
  75 H75           11.8048     2.4504     1.0281 H       
  76 H76           13.4870     4.9152     1.6700 H       
  77 H77           13.8600     3.2464     2.1644 H       
  78 H78           15.1239     3.8742     0.1255 H       
  79 H79           13.9678     2.5649    -0.2173 H       
  80 H80           13.5036     5.5343    -0.7505 H       
  81 H81           13.8884     4.3066    -1.9805 H       
  82 H82           11.8214     3.0695    -1.3924 H       
  83 H83           11.4484     4.7383    -1.8868 H       
@<TRIPOS>BOND
   1    1    2 1
   2    1    3 2
   3    2   14 1
   4    2    5 1
   5    2   44 1
   6    3    4 1
   7    3    6 1
   8    4    5 2
   9    5   13 1
  10    6    7 1
  11    6   45 1
  12    7    8 ar
  13    7    9 ar
  14    8   12 ar
  15    8   46 1
  16    9   10 ar
  17    9   47 1
  18   10   11 ar
  19   10   38 1
  20   11   12 ar
  21   11   27 1
  22   12   48 1
  23   13   49 1
  24   13   50 1
  25   14   15 ar
  26   14   16 ar
  27   15   19 ar
  28   15   51 1
  29   16   17 ar
  30   17   18 ar
  31   17   20 1
  32   18   19 ar
  33   18   23 1
  34   19   25 1
  35   20   21 1
  36   20   24 1
  37   20   52 1
  38   21   22 1
  39   21   53 1
  40   21   54 1
  41   22   23 1
  42   22   55 1
  43   22   56 1
  44   23   24 1
  45   23   57 1
  46   24   58 1
  47   24   59 1
  48   25   26 ar
  49   25   37 ar
  50   26   34 ar
  51   26   60 1
  52   27   28 1
  53   27   32 1
  54   28   29 1
  55   28   61 1
  56   28   62 1
  57   29   30 1
  58   29   63 1
  59   29   64 1
  60   30   31 1
  61   30   33 1
  62   31   32 1
  63   31   65 1
  64   31   66 1
  65   32   67 1
  66   32   68 1
  67   33   39 1
  68   33   43 1
  69   33   69 1
  70   34   35 ar
  71   34   70 1
  72   35   36 ar
  73   35   71 1
  74   36   37 ar
  75   36   72 1
  76   37   73 1
  77   39   40 1
  78   39   74 1
  79   39   75 1
  80   40   41 1
  81   40   76 1
  82   40   77 1
  83   41   42 1
  84   41   78 1
  85   41   79 1
  86   42   43 1
  87   42   80 1
  88   42   81 1
  89   43   82 1
  90   43   83 1

#	End of record

