#	Name: ASD00170709
#	Creating user name:	WinNT
#	Creation time:	15. 06. 2019 18:32

#	Modifying user name:	WinNT
#	Modification time:	15. 06. 2019 18:32

#	Program:	/corina/corina34_cracker 3.40 0067  02.08.2006

@<TRIPOS>MOLECULE
ASD00170709
  50   52    0    0    0
SMALL
NO_CHARGES


@<TRIPOS>ATOM
   1 Cl1            4.1844     7.1047    -4.5229 Cl      
   2 C2             3.1023     6.9989    -3.1696 C.ar    
   3 C3             3.5137     6.3722    -2.0048 C.ar    
   4 C4             2.6584     6.2847    -0.9267 C.ar    
   5 C5             1.3757     6.8296    -1.0107 C.ar    
   6 C6             0.9669     7.4604    -2.1872 C.ar    
   7 C7             1.8329     7.5464    -3.2569 C.ar    
   8 C8             0.4537     6.7386     0.1416 C.2     
   9 O9             0.7750     6.1035     1.1299 O.2     
  10 C10           -0.8444     7.4114     0.0947 C.2     
  11 C11           -2.0197     6.7773    -0.2405 C.2     
  12 N12           -2.1225     5.4420    -0.5702 N.pl3   
  13 S13           -3.3302     7.8654    -0.1917 S.3     
  14 C14           -2.3041     9.2059     0.2861 C.2     
  15 C15           -1.0314     8.8116     0.4010 C.2     
  16 C16            0.0927     9.7337     0.7976 C.3     
  17 C17            0.2646     9.7040     2.3176 C.3     
  18 C18            0.5618     8.2727     2.7693 C.3     
  19 C19            1.4259    10.6164     2.7174 C.3     
  20 C20           -1.0218    10.1931     2.9860 C.3     
  21 C21           -2.7829    10.5843     0.5343 C.2     
  22 C22           -2.3982    11.7834    -0.1317 C.2     
  23 C23           -1.4016    11.9139    -1.2545 C.3     
  24 N24           -3.0789    12.7424     0.4223 N.2     
  25 O25           -3.8026    12.3356     1.3004 O.3     
  26 C26           -3.7037    11.0068     1.4532 C.2     
  27 C27           -4.4509    10.1520     2.4442 C.3     
  28 H28            4.5061     5.9511    -1.9410 H       
  29 H29            2.9800     5.7952    -0.0193 H       
  30 H30           -0.0242     7.8834    -2.2581 H       
  31 H31            1.5180     8.0344    -4.1674 H       
  32 H32           -1.3227     4.8987    -0.6482 H       
  33 H33           -2.9946     5.0462    -0.7241 H       
  34 H34            1.0166     9.4062     0.3209 H       
  35 H35           -0.1408    10.7494     0.4781 H       
  36 H36            1.4782     7.9242     2.2930 H       
  37 H37            0.6843     8.2515     3.8522 H       
  38 H38           -0.2655     7.6227     2.4844 H       
  39 H39            1.1781    11.6489     2.4712 H       
  40 H40            1.6026    10.5309     3.7896 H       
  41 H41            2.3243    10.3194     2.1763 H       
  42 H42           -1.8252     9.4828     2.7911 H       
  43 H43           -0.8635    10.2765     4.0613 H       
  44 H44           -1.2930    11.1684     2.5820 H       
  45 H45           -1.9172    11.8224    -2.2105 H       
  46 H46           -0.9142    12.8872    -1.1964 H       
  47 H47           -0.6525    11.1267    -1.1689 H       
  48 H48           -5.1601    10.7699     2.9950 H       
  49 H49           -4.9889     9.3665     1.9136 H       
  50 H50           -3.7440     9.7014     3.1409 H       
@<TRIPOS>BOND
   1    1    2 1
   2    2    3 ar
   3    2    7 ar
   4    3    4 ar
   5    3   28 1
   6    4    5 ar
   7    4   29 1
   8    5    6 ar
   9    5    8 1
  10    6    7 ar
  11    6   30 1
  12    7   31 1
  13    8    9 2
  14    8   10 1
  15   10   11 2
  16   10   15 1
  17   11   12 1
  18   11   13 1
  19   12   32 1
  20   12   33 1
  21   13   14 1
  22   14   15 2
  23   14   21 1
  24   15   16 1
  25   16   17 1
  26   16   34 1
  27   16   35 1
  28   17   18 1
  29   17   19 1
  30   17   20 1
  31   18   36 1
  32   18   37 1
  33   18   38 1
  34   19   39 1
  35   19   40 1
  36   19   41 1
  37   20   42 1
  38   20   43 1
  39   20   44 1
  40   21   22 1
  41   21   26 2
  42   22   23 1
  43   22   24 2
  44   23   45 1
  45   23   46 1
  46   23   47 1
  47   24   25 1
  48   25   26 1
  49   26   27 1
  50   27   48 1
  51   27   49 1
  52   27   50 1

#	End of record

