#	Name: ASD08150550
#	Creating user name:	WinNT
#	Creation time:	15. 06. 2019 21:16

#	Modifying user name:	WinNT
#	Modification time:	15. 06. 2019 21:16

#	Program:	/corina/corina34_cracker 3.40 0067  02.08.2006

@<TRIPOS>MOLECULE
ASD08150550
  54   59    0    0    0
SMALL
NO_CHARGES


@<TRIPOS>ATOM
   1 N1             0.3747     1.9750    -2.7665 N.am    
   2 C2             0.4922     0.7883    -3.3934 C.2     
   3 C3             1.7041     0.0692    -3.3601 C.2     
   4 C4             2.7756     0.5671    -2.6917 C.2     
   5 C5             2.6556     1.8153    -2.0315 C.ar    
   6 C6             3.7364     2.3766    -1.3246 C.ar    
   7 N7             3.6231     3.5285    -0.7168 N.ar    
   8 C8             2.4839     4.2376    -0.7294 C.ar    
   9 C9             1.3452     3.7494    -1.4161 C.ar    
  10 C10            1.4347     2.5055    -2.0838 C.ar    
  11 C11            0.1182     5.7087    -0.7552 C.ar    
  12 C12            1.2487     6.1854    -0.0780 C.ar    
  13 C13            2.4061     5.4710    -0.0623 C.ar    
  14 O14           -0.4627     0.3300    -3.9973 O.2     
  15 C15           -0.8391     2.6728    -2.8190 C.ar    
  16 C16           -1.1214     3.4943    -3.9026 C.ar    
  17 C17           -2.3180     4.1822    -3.9543 C.ar    
  18 C18           -3.2393     4.0518    -2.9216 C.ar    
  19 C19           -2.9560     3.2300    -1.8383 C.ar    
  20 C20           -1.7624     2.5384    -1.7900 C.ar    
  21 C21            0.1628     4.4961    -1.4226 C.ar    
  22 C22           -1.1330     6.5075    -0.7572 C.2     
  23 C23           -1.2221     7.8664    -0.8427 C.2     
  24 N24           -4.4510     4.7485    -2.9731 N.3     
  25 Cl25          -2.6711     5.2097    -5.3083 Cl      
  26 C26           -4.2231     6.1891    -3.1533 C.3     
  27 C27           -5.2574     4.4922    -1.7715 C.3     
  28 C28           -6.6045     5.2067    -1.9024 C.3     
  29 N29           -6.3765     6.6472    -2.0827 N.3     
  30 C30           -5.5702     6.9036    -3.2842 C.3     
  31 N31           -2.5302     8.1922    -0.8119 N.pl3   
  32 N32           -3.2730     7.0102    -0.7049 N.2     
  33 C33           -2.4446     6.0000    -0.6774 C.2     
  34 H34            1.7803    -0.8810    -3.8677 H       
  35 H35            3.7061     0.0195    -2.6631 H       
  36 H36            4.6759     1.8457    -1.2834 H       
  37 H37            1.2004     7.1328     0.4382 H       
  38 H38            3.2676     5.8532     0.4649 H       
  39 H39           -0.4051     3.5955    -4.7046 H       
  40 H40           -3.6717     3.1286    -1.0358 H       
  41 H41           -1.5425     1.8994    -0.9475 H       
  42 H42           -0.7090     4.1300    -1.9445 H       
  43 H43           -0.3947     8.5562    -0.9203 H       
  44 H44           -3.6849     6.5828    -2.2911 H       
  45 H45           -3.6347     6.3540    -4.0560 H       
  46 H46           -5.4231     3.4200    -1.6667 H       
  47 H47           -4.7309     4.8666    -0.8936 H       
  48 H48           -7.1427     4.8130    -2.7646 H       
  49 H49           -7.1928     5.0418    -0.9997 H       
  50 H50           -7.2507     7.1498    -2.1198 H       
  51 H51           -5.4045     7.9758    -3.3890 H       
  52 H52           -6.0966     6.5292    -4.1622 H       
  53 H53           -2.8937     9.0904    -0.8558 H       
  54 H54           -2.7177     4.9580    -0.5997 H       
@<TRIPOS>BOND
   1    1    2 am
   2    1   10 1
   3    1   15 1
   4    2    3 1
   5    2   14 2
   6    3    4 2
   7    3   34 1
   8    4    5 1
   9    4   35 1
  10    5    6 ar
  11    5   10 ar
  12    6    7 ar
  13    6   36 1
  14    7    8 ar
  15    8    9 ar
  16    8   13 ar
  17    9   10 ar
  18    9   21 ar
  19   11   12 ar
  20   11   22 1
  21   11   21 ar
  22   12   13 ar
  23   12   37 1
  24   13   38 1
  25   15   16 ar
  26   15   20 ar
  27   16   17 ar
  28   16   39 1
  29   17   18 ar
  30   17   25 1
  31   18   19 ar
  32   18   24 1
  33   19   20 ar
  34   19   40 1
  35   20   41 1
  36   21   42 1
  37   22   23 2
  38   22   33 1
  39   23   31 1
  40   23   43 1
  41   24   26 1
  42   24   27 1
  43   26   30 1
  44   26   44 1
  45   26   45 1
  46   27   28 1
  47   27   46 1
  48   27   47 1
  49   28   29 1
  50   28   48 1
  51   28   49 1
  52   29   30 1
  53   29   50 1
  54   30   51 1
  55   30   52 1
  56   31   32 1
  57   31   53 1
  58   32   33 2
  59   33   54 1

#	End of record

