#	Name: ASD01812522
#	Creating user name:	WinNT
#	Creation time:	15. 06. 2019 19:28

#	Modifying user name:	WinNT
#	Modification time:	15. 06. 2019 19:28

#	Program:	/corina/corina34_cracker 3.40 0067  02.08.2006

@<TRIPOS>MOLECULE
ASD01812522
  56   61    0    0    0
SMALL
NO_CHARGES


@<TRIPOS>ATOM
   1 C1            -0.1097     1.4576     0.0050 C.ar    
   2 C2            -0.1153    -0.0025    -0.0038 C.ar    
   3 C3            -1.3601    -0.6778    -0.0183 C.ar    
   4 C4            -2.5612     0.0621    -0.0235 C.ar    
   5 C5            -2.5496     1.4163    -0.0153 C.ar    
   6 C6            -1.3435     2.1344     0.0042 C.ar    
   7 C7            -1.3759    -2.0810    -0.0268 C.ar    
   8 C8            -0.2002    -2.7708    -0.0211 C.ar    
   9 C9             1.0207    -2.1042    -0.0064 C.ar    
  10 C10            1.0725    -0.7407     0.0022 C.ar    
  11 N11            1.0319     2.1655     0.0193 N.2     
  12 C12            1.0301     3.4667     0.0275 C.2     
  13 N13           -0.1096     4.2068     0.0229 N.am    
  14 C14           -1.3202     3.6021     0.0131 C.2     
  15 C15           -3.8800    -0.6670    -0.0389 C.3     
  16 C16           -4.2713    -1.0273     1.3711 C.ar    
  17 C17           -3.8725    -2.2299     1.9203 C.ar    
  18 C18           -5.0315    -0.1516     2.1335 C.ar    
  19 C19           -5.3690    -0.5219     3.4239 C.ar    
  20 C20           -4.9380    -1.7497     3.9092 C.ar    
  21 N21           -4.2101    -2.5552     3.1535 N.ar    
  22 O22           -2.3510     4.2509     0.0126 O.2     
  23 O23           -5.2618    -2.1240     5.1725 O.3     
  24 C24           -4.7886    -3.3984     5.6128 C.3     
  25 C25           -0.0312     5.5974     0.0328 C.2     
  26 N26           -0.0759     6.3954     1.1235 N.pl3   
  27 N27            0.0349     7.7245     0.6991 N.2     
  28 C28            0.1437     7.7462    -0.6024 C.2     
  29 C29            0.1129     6.4187    -1.0704 C.2     
  30 C30            0.2127     5.9823    -2.4845 C.ar    
  31 C31           -0.6813     6.4758    -3.4335 C.ar    
  32 C32           -0.5846     6.0676    -4.7482 C.ar    
  33 C33            0.3970     5.1695    -5.1263 C.ar    
  34 C34            1.2884     4.6747    -4.1883 C.ar    
  35 C35            1.2039     5.0822    -2.8699 C.ar    
  36 F36            2.2445     3.7970    -4.5634 F       
  37 H37           -3.4862     1.9540    -0.0203 H       
  38 H38           -2.3160    -2.6124    -0.0376 H       
  39 H39           -0.2168    -3.8506    -0.0277 H       
  40 H40            1.9388    -2.6729    -0.0013 H       
  41 H41            2.0262    -0.2340     0.0132 H       
  42 H42            1.9789     3.9826     0.0389 H       
  43 H43           -4.6450    -0.0249    -0.4755 H       
  44 H44           -3.7858    -1.5757    -0.6334 H       
  45 H45           -3.2770    -2.9130     1.3327 H       
  46 H46           -5.3522     0.7972     1.7294 H       
  47 H47           -5.9592     0.1355     4.0452 H       
  48 H48           -5.1886    -4.1783     4.9647 H       
  49 H49           -3.6995    -3.4155     5.5724 H       
  50 H50           -5.1169    -3.5737     6.6374 H       
  51 H51           -0.1688     6.0978     2.0420 H       
  52 H52            0.2441     8.6305    -1.2142 H       
  53 H53           -1.4488     7.1766    -3.1402 H       
  54 H54           -1.2771     6.4499    -5.4834 H       
  55 H55            0.4686     4.8526    -6.1563 H       
  56 H56            1.9018     4.7002    -2.1396 H       
@<TRIPOS>BOND
   1    1    2 ar
   2    1   11 1
   3    1    6 ar
   4    2   10 ar
   5    2    3 ar
   6    3    4 ar
   7    3    7 ar
   8    4    5 ar
   9    4   15 1
  10    5    6 ar
  11    5   37 1
  12    6   14 1
  13    7    8 ar
  14    7   38 1
  15    8    9 ar
  16    8   39 1
  17    9   10 ar
  18    9   40 1
  19   10   41 1
  20   11   12 2
  21   12   13 1
  22   12   42 1
  23   13   14 am
  24   13   25 1
  25   14   22 2
  26   15   16 1
  27   15   43 1
  28   15   44 1
  29   16   18 ar
  30   16   17 ar
  31   17   21 ar
  32   17   45 1
  33   18   19 ar
  34   18   46 1
  35   19   20 ar
  36   19   47 1
  37   20   21 ar
  38   20   23 1
  39   23   24 1
  40   24   48 1
  41   24   49 1
  42   24   50 1
  43   25   26 1
  44   25   29 2
  45   26   27 1
  46   26   51 1
  47   27   28 2
  48   28   29 1
  49   28   52 1
  50   29   30 1
  51   30   31 ar
  52   30   35 ar
  53   31   32 ar
  54   31   53 1
  55   32   33 ar
  56   32   54 1
  57   33   34 ar
  58   33   55 1
  59   34   35 ar
  60   34   36 1
  61   35   56 1

#	End of record

