#	Name: ASD04550039
#	Creating user name:	WinNT
#	Creation time:	15. 06. 2019 20:49

#	Modifying user name:	WinNT
#	Modification time:	15. 06. 2019 20:49

#	Program:	/corina/corina34_cracker 3.40 0067  02.08.2006

@<TRIPOS>MOLECULE
ASD04550039
  32   33    0    0    0
SMALL
NO_CHARGES


@<TRIPOS>ATOM
   1 C1             0.0191     1.5041     0.4884 C.ar    
   2 C2             0.0885     0.2875     1.1516 C.ar    
   3 C3            -1.0627    -0.2954     1.6453 C.ar    
   4 C4            -2.2831     0.3323     1.4785 C.ar    
   5 C5            -2.3551     1.5448     0.8173 C.ar    
   6 C6            -1.2065     2.1348     0.3272 C.ar    
   7 C7            -3.6873     2.2258     0.6364 C.3     
   8 C8            -4.6222     1.3137    -0.1605 C.3     
   9 O9             1.1500     2.0797     0.0022 O.3     
  10 C10            2.3113     1.3799     0.0920 C.ar    
  11 C11            2.6807     0.5127    -0.9263 C.ar    
  12 C12            3.8620    -0.1971    -0.8328 C.ar    
  13 C13            4.6762    -0.0441     0.2742 C.ar    
  14 C14            4.3105     0.8194     1.2903 C.ar    
  15 C15            3.1328     1.5356     1.1994 C.ar    
  16 C16           -4.2934     2.5102     1.9865 C.2     
  17 O17           -3.7042     2.1927     2.9923 O.2     
  18 O18           -5.4880     3.1165     2.0715 O.3     
  19 H19            1.0416    -0.2036     1.2816 H       
  20 H20           -1.0092    -1.2424     2.1617 H       
  21 H21           -3.1819    -0.1252     1.8648 H       
  22 H22           -1.2632     3.0818    -0.1890 H       
  23 H23           -3.5463     3.1623     0.0968 H       
  24 H24           -5.5857     1.8062    -0.2913 H       
  25 H25           -4.1837     1.1079    -1.1369 H       
  26 H26           -4.7631     0.3772     0.3792 H       
  27 H27            2.0449     0.3926    -1.7911 H       
  28 H28            4.1498    -0.8724    -1.6250 H       
  29 H29            5.5992    -0.6002     0.3455 H       
  30 H30            4.9480     0.9369     2.1541 H       
  31 H31            2.8476     2.2099     1.9933 H       
  32 H32           -5.8362     3.2779     2.9591 H       
@<TRIPOS>BOND
   1    1    2 ar
   2    1    9 1
   3    1    6 ar
   4    2    3 ar
   5    2   19 1
   6    3    4 ar
   7    3   20 1
   8    4    5 ar
   9    4   21 1
  10    5    6 ar
  11    5    7 1
  12    6   22 1
  13    7    8 1
  14    7   16 1
  15    7   23 1
  16    8   24 1
  17    8   25 1
  18    8   26 1
  19    9   10 1
  20   10   11 ar
  21   10   15 ar
  22   11   12 ar
  23   11   27 1
  24   12   13 ar
  25   12   28 1
  26   13   14 ar
  27   13   29 1
  28   14   15 ar
  29   14   30 1
  30   15   31 1
  31   16   17 2
  32   16   18 1
  33   18   32 1

#	End of record

