#	Name: ASD01917144
#	Creating user name:	WinNT
#	Creation time:	15. 06. 2019 20:08

#	Modifying user name:	WinNT
#	Modification time:	15. 06. 2019 20:08

#	Program:	/corina/corina34_cracker 3.40 0067  02.08.2006

@<TRIPOS>MOLECULE
ASD01917144
  82   87    0    0    0
SMALL
NO_CHARGES


@<TRIPOS>ATOM
   1 C1            -0.0245     1.3184     0.0994 C.2     
   2 N2             0.0080     0.0301    -0.1650 N.2     
   3 N3            -1.3231    -0.4170    -0.1829 N.pl3   
   4 C4            -2.0935     0.6643     0.0798 C.2     
   5 N5            -1.2978     1.6987     0.2524 N.2     
   6 C6             1.1600     2.2050     0.2154 C.ar    
   7 C7             0.9942     3.5588     0.5005 C.ar    
   8 C8             2.4414     1.6847     0.0454 C.ar    
   9 C9             3.5399     2.5124     0.1546 C.ar    
  10 C10            3.3703     3.8590     0.4329 C.ar    
  11 C11           -1.7862    -1.7836    -0.4360 C.3     
  12 C12           -1.8174    -2.5516     0.8602 C.2     
  13 N13           -2.2141    -3.8396     0.8710 N.am    
  14 O14           -1.4853    -2.0107     1.8937 O.2     
  15 C15           -2.2519    -4.6074     2.1249 C.3     
  16 C16           -3.6321    -5.2605     2.2544 C.3     
  17 N17           -3.9181    -6.0379     1.0412 N.3     
  18 C18           -3.9864    -5.1715    -0.1431 C.3     
  19 C19           -2.6266    -4.5129    -0.3699 C.3     
  20 C20           -5.0837    -6.7738     1.1861 C.ar    
  21 N21           -5.7828    -6.7161     2.3175 N.ar    
  22 C22           -6.8919    -7.4125     2.4622 C.ar    
  23 N23           -7.3554    -8.1901     1.5050 N.ar    
  24 C24           -6.7144    -8.3018     0.3447 C.ar    
  25 C25           -5.5441    -7.5803     0.1481 C.ar    
  26 C26           -3.5706     0.6799     0.1642 C.ar    
  27 C27            2.0982     4.3794     0.6079 C.ar    
  28 C28           -4.2716    -0.5063     0.3840 C.ar    
  29 C29           -5.6484    -0.4864     0.4618 C.ar    
  30 C30           -6.3356     0.7089     0.3216 C.ar    
  31 C31           -5.6439     1.8898     0.1031 C.ar    
  32 C32           -4.2667     1.8815     0.0299 C.ar    
  33 F33            4.4486     4.6659     0.5395 F       
  34 F34           -7.6844     0.7229     0.3977 F       
  35 O35           -7.1995    -9.1045    -0.6339 O.3     
  36 C36           -8.4114    -9.8082    -0.3545 C.3     
  37 C37           -8.7999   -10.6562    -1.5673 C.3     
  38 C38          -10.0975   -11.4097    -1.2682 C.3     
  39 N39          -10.4706   -12.2238    -2.4327 N.3     
  40 C40          -11.5723   -13.1391    -2.1041 C.3     
  41 C41          -11.9832   -13.9104    -3.3606 C.3     
  42 N42          -10.8242   -14.6505    -3.8788 N.3     
  43 C43           -9.7224   -13.7353    -4.2073 C.3     
  44 C44           -9.3116   -12.9640    -2.9508 C.3     
  45 C45          -11.1972   -15.4647    -5.0432 C.3     
  46 H46            0.0029     3.9653     0.6367 H       
  47 H47            2.5746     0.6351    -0.1712 H       
  48 H48            4.5335     2.1099     0.0233 H       
  49 H49           -2.7878    -1.7542    -0.8651 H       
  50 H50           -1.1067    -2.2743    -1.1329 H       
  51 H51           -1.4821    -5.3788     2.1052 H       
  52 H52           -2.0826    -3.9387     2.9689 H       
  53 H53           -3.6417    -5.9218     3.1208 H       
  54 H54           -4.3903    -4.4872     2.3781 H       
  55 H55           -4.2530    -5.7682    -1.0154 H       
  56 H56           -4.7397    -4.3994     0.0140 H       
  57 H57           -2.7030    -3.7834    -1.1762 H       
  58 H58           -1.8901    -5.2734    -0.6290 H       
  59 H59           -7.4365    -7.3442     3.3924 H       
  60 H60           -5.0007    -7.6491    -0.7827 H       
  61 H61            1.9703     5.4297     0.8244 H       
  62 H62           -3.7370    -1.4384     0.4927 H       
  63 H63           -6.1920    -1.4040     0.6319 H       
  64 H64           -6.1840     2.8186    -0.0059 H       
  65 H65           -3.7286     2.8023    -0.1404 H       
  66 H66           -8.2644   -10.4560     0.5097 H       
  67 H67           -9.2060    -9.0931    -0.1416 H       
  68 H68           -8.9469   -10.0084    -2.4315 H       
  69 H69           -8.0053   -11.3713    -1.7802 H       
  70 H70           -9.9506   -12.0574    -0.4040 H       
  71 H71          -10.8921   -10.6945    -1.0553 H       
  72 H72          -11.2454   -13.8412    -1.3371 H       
  73 H73          -12.4230   -12.5664    -1.7346 H       
  74 H74          -12.7808   -14.6107    -3.1129 H       
  75 H75          -12.3358   -13.2103    -4.1180 H       
  76 H76           -8.8718   -14.3080    -4.5769 H       
  77 H77          -10.0493   -13.0332    -4.9743 H       
  78 H78           -8.5139   -12.2636    -3.1986 H       
  79 H79           -8.9590   -13.6641    -2.1934 H       
  80 H80          -11.5793   -14.8169    -5.8321 H       
  81 H81          -10.3212   -16.0019    -5.4067 H       
  82 H82          -11.9680   -16.1795    -4.7549 H       
@<TRIPOS>BOND
   1    1    2 2
   2    1    6 1
   3    1    5 1
   4    2    3 1
   5    3    4 1
   6    3   11 1
   7    4    5 2
   8    4   26 1
   9    6    7 ar
  10    6    8 ar
  11    7   27 ar
  12    7   46 1
  13    8    9 ar
  14    8   47 1
  15    9   10 ar
  16    9   48 1
  17   10   27 ar
  18   10   33 1
  19   11   12 1
  20   11   49 1
  21   11   50 1
  22   12   13 am
  23   12   14 2
  24   13   15 1
  25   13   19 1
  26   15   16 1
  27   15   51 1
  28   15   52 1
  29   16   17 1
  30   16   53 1
  31   16   54 1
  32   17   18 1
  33   17   20 1
  34   18   19 1
  35   18   55 1
  36   18   56 1
  37   19   57 1
  38   19   58 1
  39   20   21 ar
  40   20   25 ar
  41   21   22 ar
  42   22   23 ar
  43   22   59 1
  44   23   24 ar
  45   24   25 ar
  46   24   35 1
  47   25   60 1
  48   26   28 ar
  49   26   32 ar
  50   27   61 1
  51   28   29 ar
  52   28   62 1
  53   29   30 ar
  54   29   63 1
  55   30   31 ar
  56   30   34 1
  57   31   32 ar
  58   31   64 1
  59   32   65 1
  60   35   36 1
  61   36   37 1
  62   36   66 1
  63   36   67 1
  64   37   38 1
  65   37   68 1
  66   37   69 1
  67   38   39 1
  68   38   70 1
  69   38   71 1
  70   39   40 1
  71   39   44 1
  72   40   41 1
  73   40   72 1
  74   40   73 1
  75   41   42 1
  76   41   74 1
  77   41   75 1
  78   42   43 1
  79   42   45 1
  80   43   44 1
  81   43   76 1
  82   43   77 1
  83   44   78 1
  84   44   79 1
  85   45   80 1
  86   45   81 1
  87   45   82 1

#	End of record

