#	Name: ASD02408152
#	Creating user name:	WinNT
#	Creation time:	15. 06. 2019 20:21

#	Modifying user name:	WinNT
#	Modification time:	15. 06. 2019 20:21

#	Program:	/corina/corina34_cracker 3.40 0067  02.08.2006

@<TRIPOS>MOLECULE
ASD02408152
  44   46    0    0    0
SMALL
NO_CHARGES


@<TRIPOS>ATOM
   1 C1            -0.0167     1.3829     0.0096 C.ar    
   2 C2             0.0021    -0.0041     0.0020 C.ar    
   3 C3             1.1767     2.0906     0.0021 C.ar    
   4 C4             2.3801     1.4129    -0.0131 C.ar    
   5 C5             2.3962     0.0301    -0.0207 C.ar    
   6 C6             1.2085    -0.6774    -0.0131 C.ar    
   7 C7             1.1599     3.5975     0.0098 C.3     
   8 C8             1.0438     4.0913     1.4289 C.2     
   9 N9             1.0118     5.4187     1.6558 N.am    
  10 N10            0.9721     3.2184     2.3968 N.2     
  11 C11            0.8673     3.5990     3.6764 C.2     
  12 C12            0.8336     4.9689     3.9853 C.2     
  13 C13            0.9079     5.8959     2.9140 C.2     
  14 N14            0.7931     2.6602     4.6759 N.pl3   
  15 C15            0.8284     1.2335     4.3449 C.3     
  16 O16            0.8829     7.0961     3.1254 O.2     
  17 C17            1.3501     0.4264     5.5466 C.3     
  18 C18            0.2222    -0.5471     5.9468 C.3     
  19 C19           -0.6183    -0.7059     4.6555 C.3     
  20 C20           -0.5983     0.7224     4.0568 C.3     
  21 C21            0.7223     5.4164     5.3410 C.1     
  22 N22            0.6339     5.7714     6.4164 N.1     
  23 O23           -1.2021     2.0475     0.0189 O.3     
  24 C24           -2.3907     1.2541     0.0202 C.3     
  25 F25           -2.4070     0.4405     1.1582 F       
  26 F26           -3.5108     2.0923     0.0301 F       
  27 F27           -2.4178     0.4529    -1.1263 F       
  28 H28           -0.9255    -0.5572     0.0083 H       
  29 H29            3.3093     1.9633    -0.0194 H       
  30 H30            3.3382    -0.4980    -0.0328 H       
  31 H31            1.2237    -1.7572    -0.0191 H       
  32 H32            2.0831     3.9734    -0.4313 H       
  33 H33            0.3086     3.9544    -0.5699 H       
  34 H34            1.0641     6.0362     0.9096 H       
  35 H35            0.7173     2.9417     5.6011 H       
  36 H36            1.4676     1.0674     3.4778 H       
  37 H37            2.2420    -0.1321     5.2624 H       
  38 H38            1.5770     1.0961     6.3761 H       
  39 H39            0.6376    -1.5074     6.2521 H       
  40 H40           -0.3837    -0.1209     6.7463 H       
  41 H41           -0.1499    -1.4167     3.9747 H       
  42 H42           -1.6374    -1.0110     4.8930 H       
  43 H43           -1.3368     1.3536     4.5511 H       
  44 H44           -0.7817     0.6885     2.9828 H       
@<TRIPOS>BOND
   1    1    2 ar
   2    1    3 ar
   3    1   23 1
   4    2    6 ar
   5    2   28 1
   6    3    4 ar
   7    3    7 1
   8    4    5 ar
   9    4   29 1
  10    5    6 ar
  11    5   30 1
  12    6   31 1
  13    7    8 1
  14    7   32 1
  15    7   33 1
  16    8    9 1
  17    8   10 2
  18    9   13 am
  19    9   34 1
  20   10   11 1
  21   11   12 2
  22   11   14 1
  23   12   13 1
  24   12   21 1
  25   13   16 2
  26   14   15 1
  27   14   35 1
  28   15   17 1
  29   15   20 1
  30   15   36 1
  31   17   18 1
  32   17   37 1
  33   17   38 1
  34   18   19 1
  35   18   39 1
  36   18   40 1
  37   19   20 1
  38   19   41 1
  39   19   42 1
  40   20   43 1
  41   20   44 1
  42   21   22 3
  43   23   24 1
  44   24   25 1
  45   24   26 1
  46   24   27 1

#	End of record

