#	Name: ASD01916168
#	Creating user name:	WinNT
#	Creation time:	15. 06. 2019 20:06

#	Modifying user name:	WinNT
#	Modification time:	15. 06. 2019 20:06

#	Program:	/corina/corina34_cracker 3.40 0067  02.08.2006

@<TRIPOS>MOLECULE
ASD01916168
  48   51    0    0    0
SMALL
NO_CHARGES


@<TRIPOS>ATOM
   1 C1             2.0823     0.6988    -4.9071 C.ar    
   2 C2             1.8457    -0.5216    -4.3047 C.ar    
   3 C3             2.9074    -1.3616    -4.0014 C.ar    
   4 C4             4.2044    -0.9734    -4.3041 C.ar    
   5 C5             4.4358     0.2480    -4.9066 C.ar    
   6 C6             3.3760     1.0834    -5.2078 C.ar    
   7 O7             2.6772    -2.5625    -3.4084 O.3     
   8 C8             3.8178    -3.3754    -3.1252 C.3     
   9 C9             3.3709    -4.6585    -2.4732 C.2     
  10 C10            2.0475    -5.0141    -2.1831 C.2     
  11 N11            4.1528    -5.6356    -2.0855 N.2     
  12 N12            3.3536    -6.6416    -1.5358 N.pl3   
  13 C13            2.0665    -6.2299    -1.6049 C.2     
  14 C14            3.7952    -7.9259    -0.9852 C.3     
  15 C15            2.6885    -8.5011    -0.0947 C.3     
  16 N16            1.3978    -8.3857    -0.7905 N.am    
  17 C17            0.8934    -7.0351    -1.0983 C.3     
  18 C18            0.6971    -9.4825    -1.1404 C.2     
  19 C19           -0.6581    -9.3420    -1.7149 C.ar    
  20 O20            1.1792   -10.5873    -0.9838 O.2     
  21 C21           -1.4863    -8.2944    -1.3059 C.ar    
  22 C22           -3.2088    -9.0621    -2.7826 C.ar    
  23 C23           -2.3882   -10.1112    -3.2057 C.ar    
  24 C24           -1.1095   -10.2510    -2.6695 C.ar    
  25 C25           -2.7526    -8.1617    -1.8409 C.ar    
  26 C26            2.9815    -9.9741     0.1975 C.3     
  27 H27            2.6484    -7.9445     0.8416 H       
  28 C28           -2.8627   -11.0445    -4.1826 C.1     
  29 N29           -3.2392   -11.7849    -4.9576 N.1     
  30 H30            1.2558     1.3511    -5.1475 H       
  31 H31            0.8351    -0.8215    -4.0697 H       
  32 H32            5.0326    -1.6254    -4.0687 H       
  33 H33            5.4453     0.5509    -5.1421 H       
  34 H34            3.5589     2.0379    -5.6788 H       
  35 H35            4.3415    -3.6029    -4.0537 H       
  36 H36            4.4875    -2.8400    -2.4522 H       
  37 H37            1.1692    -4.4196    -2.3867 H       
  38 H38            4.0037    -8.6190    -1.8002 H       
  39 H39            4.6982    -7.7770    -0.3931 H       
  40 H40            0.4910    -6.5739    -0.1964 H       
  41 H41            0.1202    -7.0926    -1.8645 H       
  42 H42           -1.1358    -7.5866    -0.5693 H       
  43 H43           -4.2000    -8.9524    -3.1972 H       
  44 H44           -0.4712   -11.0600    -2.9926 H       
  45 H45           -3.3890    -7.3499    -1.5208 H       
  46 H46            3.9402   -10.0593     0.7092 H       
  47 H47            2.1940   -10.3826     0.8308 H       
  48 H48            3.0192   -10.5299    -0.7394 H       
@<TRIPOS>BOND
   1    1    2 ar
   2    1    6 ar
   3    1   30 1
   4    2    3 ar
   5    2   31 1
   6    3    4 ar
   7    3    7 1
   8    4    5 ar
   9    4   32 1
  10    5    6 ar
  11    5   33 1
  12    6   34 1
  13    7    8 1
  14    8    9 1
  15    8   35 1
  16    8   36 1
  17    9   10 1
  18    9   11 2
  19   10   13 2
  20   10   37 1
  21   11   12 1
  22   12   13 1
  23   12   14 1
  24   13   17 1
  25   14   15 1
  26   14   38 1
  27   14   39 1
  28   15   16 1
  29   15   26 1
  30   15   27 1
  31   16   17 1
  32   16   18 am
  33   17   40 1
  34   17   41 1
  35   18   19 1
  36   18   20 2
  37   19   21 ar
  38   19   24 ar
  39   21   25 ar
  40   21   42 1
  41   22   23 ar
  42   22   25 ar
  43   22   43 1
  44   23   24 ar
  45   23   28 1
  46   24   44 1
  47   25   45 1
  48   26   46 1
  49   26   47 1
  50   26   48 1
  51   28   29 3

#	End of record

