#	Name: ASD07301087
#	Creating user name:	WinNT
#	Creation time:	15. 06. 2019 21:10

#	Modifying user name:	WinNT
#	Modification time:	15. 06. 2019 21:10

#	Program:	/corina/corina34_cracker 3.40 0067  02.08.2006

@<TRIPOS>MOLECULE
ASD07301087
  43   45    0    0    0
SMALL
NO_CHARGES


@<TRIPOS>ATOM
   1 C1            -0.0178     1.4647     0.0101 C.2     
   2 C2             0.0021    -0.0041     0.0020 C.2     
   3 C3             1.2768    -0.6367    -0.0136 C.2     
   4 C4             2.3782     0.1589    -0.0198 C.2     
   5 N5             2.2577     1.5097    -0.0114 N.pl3   
   6 N6             1.1285     2.1156     0.0026 N.2     
   7 C7            -1.2985     2.1986     0.0202 C.2     
   8 O8            -2.3495     1.5873     0.0218 O.2     
   9 N9            -1.3028     3.5463     0.0275 N.am    
  10 O10           -1.0317    -0.6549     0.0088 O.2     
  11 C11           -2.5739     4.2747     0.0375 C.3     
  12 O12            1.3887    -1.9916    -0.0215 O.3     
  13 C13            2.7110    -2.5333    -0.0370 C.3     
  14 O14           -0.0788     4.2582     0.0256 O.3     
  15 C15            0.4174     4.5576    -1.2807 C.3     
  16 C16            3.4249     2.2805    -0.0179 C.ar    
  17 C17            3.6341     3.2359     0.9728 C.ar    
  18 C18            4.7876     3.9964     0.9648 C.ar    
  19 C19            5.7369     3.8072    -0.0312 C.ar    
  20 C20            5.5274     2.8538    -1.0193 C.ar    
  21 C21            4.3785     2.0892    -1.0096 C.ar    
  22 N22            6.9067     4.5790    -0.0396 N.pl3   
  23 N23            7.2467     5.5707     0.8896 N.2     
  24 C24            8.4099     6.0666     0.5516 C.2     
  25 C25            8.8482     5.4079    -0.6024 C.2     
  26 C26            7.9097     4.4943    -0.9426 C.2     
  27 F27            2.7099     3.4195     1.9409 F       
  28 H28            3.3607    -0.2894    -0.0312 H       
  29 H29           -2.8842     4.4498     1.0676 H       
  30 H30           -2.4490     5.2303    -0.4717 H       
  31 H31           -3.3341     3.6860    -0.4759 H       
  32 H32            3.2333    -2.1910    -0.9304 H       
  33 H33            3.2506    -2.2000     0.8494 H       
  34 H34            2.6576    -3.6220    -0.0420 H       
  35 H35           -0.3106     5.1681    -1.8148 H       
  36 H36            1.3571     5.1034    -1.1961 H       
  37 H37            0.5843     3.6295    -1.8274 H       
  38 H38            4.9509     4.7382     1.7326 H       
  39 H39            6.2663     2.7076    -1.7933 H       
  40 H40            4.2187     1.3451    -1.7759 H       
  41 H41            8.9400     6.8495     1.0736 H       
  42 H42            9.7743     5.5927    -1.1264 H       
  43 H43            7.9529     3.8201    -1.7852 H       
@<TRIPOS>BOND
   1    1    2 1
   2    1    6 2
   3    1    7 1
   4    2    3 1
   5    2   10 2
   6    3    4 2
   7    3   12 1
   8    4    5 1
   9    4   28 1
  10    5    6 1
  11    5   16 1
  12    7    8 2
  13    7    9 am
  14    9   11 1
  15    9   14 1
  16   11   29 1
  17   11   30 1
  18   11   31 1
  19   12   13 1
  20   13   32 1
  21   13   33 1
  22   13   34 1
  23   14   15 1
  24   15   35 1
  25   15   36 1
  26   15   37 1
  27   16   17 ar
  28   16   21 ar
  29   17   18 ar
  30   17   27 1
  31   18   19 ar
  32   18   38 1
  33   19   20 ar
  34   19   22 1
  35   20   21 ar
  36   20   39 1
  37   21   40 1
  38   22   23 1
  39   22   26 1
  40   23   24 2
  41   24   25 1
  42   24   41 1
  43   25   26 2
  44   25   42 1
  45   26   43 1

#	End of record

