#	Name: ASD02500311
#	Creating user name:	WinNT
#	Creation time:	15. 06. 2019 20:22

#	Modifying user name:	WinNT
#	Modification time:	15. 06. 2019 20:22

#	Program:	/corina/corina34_cracker 3.40 0067  02.08.2006

@<TRIPOS>MOLECULE
ASD02500311
  65   69    0    0    0
SMALL
NO_CHARGES


@<TRIPOS>ATOM
   1 N1            -3.2123     5.6631     0.5932 N.ar    
   2 C2            -4.3357     6.3377     0.6256 C.ar    
   3 C3            -5.2918     6.1227     1.6161 C.ar    
   4 C4            -5.0695     5.1880     2.5867 C.ar    
   5 C5            -3.8621     4.4650     2.5485 C.ar    
   6 C6            -3.5636     3.4889     3.5123 C.ar    
   7 C7            -2.3845     2.8114     3.4410 C.ar    
   8 C8            -1.4694     3.0742     2.4240 C.ar    
   9 C9            -1.7265     4.0138     1.4734 C.ar    
  10 C10           -2.9328     4.7342     1.5131 C.ar    
  11 S11           -0.5511     4.3266     0.1985 S.o2    
  12 O12           -0.3653     5.7349     0.1608 O.2     
  13 O13            0.5135     3.4073     0.3999 O.2     
  14 N14           -1.2631     3.9103    -1.2375 N.am    
  15 C15           -1.5436     2.5767    -1.5136 C.ar    
  16 C16           -1.4861     2.1117    -2.8248 C.ar    
  17 C17           -1.7631     0.7926    -3.1012 C.ar    
  18 C18           -2.1027    -0.0811    -2.0638 C.ar    
  19 C19           -2.1596     0.3888    -0.7486 C.ar    
  20 C20           -1.8758     1.7081    -0.4779 C.ar    
  21 C21           -2.4008    -1.4958    -2.3568 C.2     
  22 O22           -2.9606    -1.7972    -3.3933 O.2     
  23 N23           -2.0525    -2.4544    -1.4756 N.am    
  24 C24           -1.4940    -2.1156    -0.1414 C.3     
  25 C25           -2.5444    -2.2045     0.8669 C.3     
  26 N26           -3.1895    -3.5410     0.7995 N.am    
  27 C27           -4.1695    -3.7355    -0.2111 C.3     
  28 C28           -3.6338    -4.4075    -1.5174 C.3     
  29 C29           -2.2089    -3.8338    -1.7794 C.3     
  30 C30           -3.5887    -5.8150     1.6229 C.ar    
  31 C31           -3.3341    -6.7796     2.5953 C.ar    
  32 C32           -4.0282    -7.9784     2.5523 C.ar    
  33 C33           -4.9531    -8.1709     1.5378 C.ar    
  34 C34           -5.1555    -7.1676     0.6038 C.ar    
  35 N35           -4.4829    -6.0392     0.6682 N.ar    
  36 C36           -2.8596    -4.5257     1.6585 C.2     
  37 O37           -1.9641    -4.3561     2.4622 O.2     
  38 C38           -1.1204     3.0542    -3.9423 C.3     
  39 H39           -4.5251     7.0802    -0.1355 H       
  40 H40           -6.2077     6.6950     1.6165 H       
  41 H41           -5.7995     5.0086     3.3621 H       
  42 H42           -4.2648     3.2768     4.3058 H       
  43 H43           -2.1557     2.0606     4.1829 H       
  44 H44           -0.5408     2.5238     2.3896 H       
  45 H45           -1.4844     4.5968    -1.8861 H       
  46 H46           -1.7186     0.4326    -4.1184 H       
  47 H47           -2.4216    -0.2837     0.0548 H       
  48 H48           -1.9150     2.0707     0.5387 H       
  49 H49           -0.6944    -2.8141     0.1051 H       
  50 H50           -1.0956    -1.1012    -0.1618 H       
  51 H51           -2.1106    -2.0606     1.8564 H       
  52 H52           -3.2906    -1.4317     0.6825 H       
  53 H53           -4.9658    -4.3587     0.1959 H       
  54 H54           -4.5942    -2.7659    -0.4711 H       
  55 H55           -3.5813    -5.4881    -1.3840 H       
  56 H56           -4.2900    -4.1676    -2.3540 H       
  57 H57           -1.9708    -3.9843    -2.8323 H       
  58 H58           -1.4941    -4.4014    -1.1835 H       
  59 H59           -2.6059    -6.5959     3.3714 H       
  60 H60           -3.8522    -8.7453     3.2920 H       
  61 H61           -5.5103    -9.0940     1.4759 H       
  62 H62           -5.8753    -7.3142    -0.1879 H       
  63 H63           -0.0398     3.0468    -4.0850 H       
  64 H64           -1.6105     2.7348    -4.8620 H       
  65 H65           -1.4465     4.0628    -3.6883 H       
@<TRIPOS>BOND
   1    1    2 ar
   2    1   10 ar
   3    2    3 ar
   4    2   39 1
   5    3    4 ar
   6    3   40 1
   7    4    5 ar
   8    4   41 1
   9    5    6 ar
  10    5   10 ar
  11    6    7 ar
  12    6   42 1
  13    7    8 ar
  14    7   43 1
  15    8    9 ar
  16    8   44 1
  17    9   10 ar
  18    9   11 1
  19   11   12 2
  20   11   13 2
  21   11   14 am
  22   14   15 1
  23   14   45 1
  24   15   16 ar
  25   15   20 ar
  26   16   17 ar
  27   16   38 1
  28   17   18 ar
  29   17   46 1
  30   18   19 ar
  31   18   21 1
  32   19   20 ar
  33   19   47 1
  34   20   48 1
  35   21   22 2
  36   21   23 am
  37   23   24 1
  38   23   29 1
  39   24   25 1
  40   24   49 1
  41   24   50 1
  42   25   26 1
  43   25   51 1
  44   25   52 1
  45   26   27 1
  46   26   36 am
  47   27   28 1
  48   27   53 1
  49   27   54 1
  50   28   29 1
  51   28   55 1
  52   28   56 1
  53   29   57 1
  54   29   58 1
  55   30   31 ar
  56   30   35 ar
  57   30   36 1
  58   31   32 ar
  59   31   59 1
  60   32   33 ar
  61   32   60 1
  62   33   34 ar
  63   33   61 1
  64   34   35 ar
  65   34   62 1
  66   36   37 2
  67   38   63 1
  68   38   64 1
  69   38   65 1

#	End of record

