#	Name: ASD02500278
#	Creating user name:	WinNT
#	Creation time:	15. 06. 2019 20:22

#	Modifying user name:	WinNT
#	Modification time:	15. 06. 2019 20:22

#	Program:	/corina/corina34_cracker 3.40 0067  02.08.2006

@<TRIPOS>MOLECULE
ASD02500278
  63   67    0    0    0
SMALL
NO_CHARGES


@<TRIPOS>ATOM
   1 N1            -2.8330     5.6556    -0.8826 N.ar    
   2 C2            -3.8883     6.3252    -1.2780 C.ar    
   3 C3            -5.1262     6.1772    -0.6557 C.ar    
   4 C4            -5.2621     5.3157     0.3953 C.ar    
   5 C5            -4.1268     4.5980     0.8169 C.ar    
   6 C6            -4.1895     3.6951     1.8901 C.ar    
   7 C7            -3.0688     3.0201     2.2680 C.ar    
   8 C8            -1.8596     3.2138     1.6037 C.ar    
   9 C9            -1.7630     4.0813     0.5594 C.ar    
  10 C10           -2.8979     4.7966     0.1397 C.ar    
  11 S11           -0.2211     4.3075    -0.2627 S.o2    
  12 O12           -0.0085     5.7105    -0.3379 O.2     
  13 O13            0.6967     3.4143     0.3530 O.2     
  14 N14           -0.4139     3.7796    -1.8204 N.am    
  15 C15           -0.6357     2.4283    -2.0754 C.ar    
  16 C16           -0.0895     1.8352    -3.2155 C.ar    
  17 C17           -0.3088     0.4966    -3.4688 C.ar    
  18 C18           -1.0783    -0.2632    -2.5820 C.ar    
  19 C19           -1.6222     0.3357    -1.4429 C.ar    
  20 C20           -1.3957     1.6710    -1.1915 C.ar    
  21 O21            0.6581     2.5769    -4.0764 O.3     
  22 C22            1.1856     1.9051    -5.2220 C.3     
  23 C23           -1.3157    -1.6945    -2.8491 C.2     
  24 O24           -1.5717    -2.0681    -3.9776 O.2     
  25 N25           -1.2490    -2.5880    -1.8423 N.am    
  26 C26           -1.3884    -4.0266    -2.1084 C.3     
  27 C27           -0.1598    -4.7508    -1.5441 C.3     
  28 N28            0.0542    -4.3039    -0.1605 N.am    
  29 C29            0.1937    -2.8653     0.1057 C.3     
  30 C30           -1.0293    -2.1416    -0.4594 C.3     
  31 C31            0.1210    -5.1975     0.8463 C.2     
  32 C32           -0.1181    -6.6332     0.5785 C.ar    
  33 C33            0.6093    -7.3123    -0.4043 C.ar    
  34 C34            0.3544    -8.6520    -0.6209 C.ar    
  35 N35           -0.5593    -9.2913     0.0822 N.ar    
  36 C36           -1.2683    -8.6927     1.0176 C.ar    
  37 C37           -1.0752    -7.3520     1.3062 C.ar    
  38 O38            0.3776    -4.8241     1.9740 O.2     
  39 F39           -1.8017    -6.7459     2.2707 F       
  40 H40           -3.7957     7.0101    -2.1079 H       
  41 H41           -5.9773     6.7435    -1.0040 H       
  42 H42           -6.2140     5.1889     0.8894 H       
  43 H43           -5.1210     3.5371     2.4132 H       
  44 H44           -3.1180     2.3258     3.0937 H       
  45 H45           -0.9846     2.6670     1.9228 H       
  46 H46           -0.3724     4.4114    -2.5552 H       
  47 H47            0.1127     0.0366    -4.3504 H       
  48 H48           -2.2170    -0.2494    -0.7572 H       
  49 H49           -1.8131     2.1315    -0.3083 H       
  50 H50            1.7604     2.6094    -5.8235 H       
  51 H51            1.8333     1.0900    -4.8991 H       
  52 H52            0.3656     1.5036    -5.8174 H       
  53 H53           -2.2894    -4.4027    -1.6238 H       
  54 H54           -1.4507    -4.1954    -3.1835 H       
  55 H55           -0.3309    -5.8271    -1.5586 H       
  56 H56            0.7160    -4.5089    -2.1463 H       
  57 H57            0.2560    -2.6966     1.1807 H       
  58 H58            1.0946    -2.4893    -0.3790 H       
  59 H59           -0.8546    -1.0658    -0.4456 H       
  60 H60           -1.9041    -2.3804     0.1454 H       
  61 H61            1.3592    -6.7963    -0.9855 H       
  62 H62            0.9115    -9.1840    -1.3779 H       
  63 H63           -2.0066    -9.2557     1.5691 H       
@<TRIPOS>BOND
   1    1    2 ar
   2    1   10 ar
   3    2    3 ar
   4    2   40 1
   5    3    4 ar
   6    3   41 1
   7    4    5 ar
   8    4   42 1
   9    5    6 ar
  10    5   10 ar
  11    6    7 ar
  12    6   43 1
  13    7    8 ar
  14    7   44 1
  15    8    9 ar
  16    8   45 1
  17    9   10 ar
  18    9   11 1
  19   11   12 2
  20   11   13 2
  21   11   14 am
  22   14   15 1
  23   14   46 1
  24   15   16 ar
  25   15   20 ar
  26   16   17 ar
  27   16   21 1
  28   17   18 ar
  29   17   47 1
  30   18   19 ar
  31   18   23 1
  32   19   20 ar
  33   19   48 1
  34   20   49 1
  35   21   22 1
  36   22   50 1
  37   22   51 1
  38   22   52 1
  39   23   24 2
  40   23   25 am
  41   25   26 1
  42   25   30 1
  43   26   27 1
  44   26   53 1
  45   26   54 1
  46   27   28 1
  47   27   55 1
  48   27   56 1
  49   28   29 1
  50   28   31 am
  51   29   30 1
  52   29   57 1
  53   29   58 1
  54   30   59 1
  55   30   60 1
  56   31   32 1
  57   31   38 2
  58   32   33 ar
  59   32   37 ar
  60   33   34 ar
  61   33   61 1
  62   34   35 ar
  63   34   62 1
  64   35   36 ar
  65   36   37 ar
  66   36   63 1
  67   37   39 1

#	End of record

