#	Name: ASD04840041
#	Creating user name:	WinNT
#	Creation time:	15. 06. 2019 20:52

#	Modifying user name:	WinNT
#	Modification time:	15. 06. 2019 20:52

#	Program:	/corina/corina34_cracker 3.40 0067  02.08.2006

@<TRIPOS>MOLECULE
ASD04840041
  58   61    0    0    0
SMALL
NO_CHARGES


@<TRIPOS>ATOM
   1 C1            -0.0184     1.5028     0.0103 C.3     
   2 C2             0.0021    -0.0041     0.0020 C.ar    
   3 C3            -0.9625    -0.7122     0.6941 C.ar    
   4 C4            -0.9437    -2.0944     0.6866 C.ar    
   5 C5             0.0394    -2.7685    -0.0135 C.ar    
   6 C6             1.0034    -2.0603    -0.7063 C.ar    
   7 C7             0.9821    -0.6781    -0.7023 C.ar    
   8 N8             1.3560     2.0099    -0.0001 N.pl3   
   9 C9             1.1671     4.5583     2.4913 C.ar    
  10 N10            2.3818     5.0556     2.5290 N.ar    
  11 C11            3.3477     4.5816     1.7322 C.ar    
  12 C12            3.0487     3.5393     0.8482 C.ar    
  13 C13            1.7197     3.0390     0.8488 C.ar    
  14 N14            0.8339     3.5746     1.6754 N.ar    
  15 C15            4.1979     3.1451     0.0615 C.2     
  16 C16            5.3095     3.8345     0.3187 C.2     
  17 S17            5.0359     5.0396     1.5627 S.3     
  18 C18            6.6053     3.6118    -0.3574 C.ar    
  19 C19            7.7151     4.3870    -0.0180 C.ar    
  20 C20            8.9222     4.1739    -0.6533 C.ar    
  21 C21            9.0323     3.1937    -1.6255 C.ar    
  22 C22            7.9356     2.4226    -1.9657 C.ar    
  23 C23            6.7252     2.6217    -1.3336 C.ar    
  24 C24           10.3524     2.9666    -2.3160 C.3     
  25 Cl25          10.3044     5.1366    -0.2332 Cl      
  26 P26           -0.9001     2.1067    -1.4666 P.3     
  27 O27           -2.4448     1.6593    -1.3898 O.3     
  28 O28           -0.8089     3.7130    -1.5267 O.3     
  29 O29           -0.2797     1.5316    -2.6810 O.2     
  30 C30           -3.3758     1.8912    -2.4488 C.3     
  31 C31           -4.7479     1.3440    -2.0504 C.3     
  32 C32           -1.3130     4.4807    -2.6214 C.3     
  33 C33           -1.0650     5.9675    -2.3586 C.3     
  34 H34           -0.5286     1.8543     0.9071 H       
  35 H35           -1.7306    -0.1856     1.2411 H       
  36 H36           -1.6969    -2.6477     1.2279 H       
  37 H37            0.0544    -3.8483    -0.0188 H       
  38 H38            1.7717    -2.5870    -1.2530 H       
  39 H39            1.7331    -0.1249    -1.2467 H       
  40 H40            2.0109     1.6236    -0.6025 H       
  41 H41            0.4163     4.9643     3.1530 H       
  42 H42            4.1580     2.3556    -0.6744 H       
  43 H43            7.6298     5.1520     0.7395 H       
  44 H44            8.0279     1.6598    -2.7246 H       
  45 H45            5.8710     2.0157    -1.5973 H       
  46 H46           10.9296     2.2263    -1.7620 H       
  47 H47           10.1752     2.6053    -3.3290 H       
  48 H48           10.9072     3.9039    -2.3564 H       
  49 H49           -3.4524     2.9620    -2.6373 H       
  50 H50           -3.0318     1.3870    -3.3519 H       
  51 H51           -4.6714     0.2732    -1.8619 H       
  52 H52           -5.0919     1.8482    -1.1473 H       
  53 H53           -5.4581     1.5209    -2.8582 H       
  54 H54           -0.8038     4.1839    -3.5383 H       
  55 H55           -2.3834     4.3040    -2.7267 H       
  56 H56           -1.4495     6.5531    -3.1937 H       
  57 H57           -1.5742     6.2642    -1.4417 H       
  58 H58            0.0054     6.1442    -2.2533 H       
@<TRIPOS>BOND
   1    1    2 1
   2    1    8 1
   3    1   26 1
   4    1   34 1
   5    2    3 ar
   6    2    7 ar
   7    3    4 ar
   8    3   35 1
   9    4    5 ar
  10    4   36 1
  11    5    6 ar
  12    5   37 1
  13    6    7 ar
  14    6   38 1
  15    7   39 1
  16    8   13 1
  17    8   40 1
  18    9   10 ar
  19    9   14 ar
  20    9   41 1
  21   10   11 ar
  22   11   12 ar
  23   11   17 1
  24   12   13 ar
  25   12   15 1
  26   13   14 ar
  27   15   16 2
  28   15   42 1
  29   16   17 1
  30   16   18 1
  31   18   19 ar
  32   18   23 ar
  33   19   20 ar
  34   19   43 1
  35   20   21 ar
  36   20   25 1
  37   21   22 ar
  38   21   24 1
  39   22   23 ar
  40   22   44 1
  41   23   45 1
  42   24   46 1
  43   24   47 1
  44   24   48 1
  45   26   27 1
  46   26   28 1
  47   26   29 2
  48   27   30 1
  49   28   32 1
  50   30   31 1
  51   30   49 1
  52   30   50 1
  53   31   51 1
  54   31   52 1
  55   31   53 1
  56   32   33 1
  57   32   54 1
  58   32   55 1
  59   33   56 1
  60   33   57 1
  61   33   58 1

#	End of record

