#	Name: ASD05143085
#	Creating user name:	WinNT
#	Creation time:	15. 06. 2019 20:57

#	Modifying user name:	WinNT
#	Modification time:	15. 06. 2019 20:57

#	Program:	/corina/corina34_cracker 3.40 0067  02.08.2006

@<TRIPOS>MOLECULE
ASD05143085
 147  150    0    0    0
SMALL
NO_CHARGES


@<TRIPOS>ATOM
   1 C1            -1.7710     2.5112     4.7491 C.2     
   2 C2            -1.2344     1.3728     5.5781 C.3     
   3 N3            -0.9285     3.2695     4.0200 N.am    
   4 O4            -2.9616     2.7418     4.7342 O.2     
   5 C5            -1.4501     4.3761     3.2142 C.3     
   6 C6            -2.4436     3.8335     2.1849 C.3     
   7 C7            -2.1469     5.3661     4.1116 C.2     
   8 C8            -1.7093     2.9245     1.1972 C.3     
   9 C9            -2.7029     2.3819     0.1680 C.3     
  10 N10           -1.9998     1.5116    -0.7778 N.pl3   
  11 C11           -2.6920     0.9054    -1.7993 C.2     
  12 N12           -2.0321     0.0886    -2.6869 N.pl3   
  13 N13           -3.9737     1.1050    -1.9264 N.2     
  14 O14           -2.5250     5.0252     5.2124 O.2     
  15 N15           -2.3500     6.6304     3.6909 N.am    
  16 C16           -3.0274     7.5928     4.5633 C.3     
  17 C17           -1.9955     8.5459     5.1696 C.3     
  18 C18           -0.8081     7.7415     5.7020 C.3     
  19 C19            0.2015     7.5464     4.6004 C.2     
  20 N20            1.5228     7.7615     4.8734 N.am    
  21 C21            2.4488     7.5417     3.7391 C.3     
  22 C22            2.5738     8.8458     2.9488 C.3     
  23 C23            3.0582     8.5377     1.5306 C.3     
  24 C24            4.0268     9.6301     1.0731 C.3     
  25 N25            3.8166     9.8808    -0.3669 N.am    
  26 C26            5.4452     9.1768     1.3050 C.2     
  27 N27            5.9868     9.2610     2.5363 N.am    
  28 O28            6.0993     8.7363     0.3837 O.2     
  29 C29            2.9988    10.9196    -0.6902 C.2     
  30 O30            2.4878    11.5927     0.1797 O.2     
  31 C31            2.7367    11.2233    -2.1429 C.3     
  32 N32            1.5465    12.0998    -2.2337 N.am    
  33 C33            3.9482    11.9377    -2.7452 C.3     
  34 C34            0.4019    11.4898    -2.6633 C.2     
  35 O35            0.3994    10.3109    -2.9477 O.2     
  36 C36           -0.8576    12.3096    -2.7765 C.3     
  37 N37           -2.0235    11.4146    -2.6362 N.am    
  38 C38           -0.8844    13.3639    -1.6680 C.3     
  39 C39           -3.0168    11.8338    -1.8048 C.2     
  40 O40           -2.9219    12.8903    -1.2168 O.2     
  41 C41           -4.2361    10.9665    -1.6263 C.3     
  42 C42            3.7338    12.1301    -4.2244 C.2     
  43 C43            3.0107    13.2318    -4.8640 C.ar    
  44 C44            3.0733    12.9864    -6.2477 C.ar    
  45 N45            3.7840    11.8200    -6.4216 N.pl3   
  46 C46            4.1742    11.3274    -5.2061 C.2     
  47 C47            2.3426    14.3610    -4.3862 C.ar    
  48 C48            1.7523    15.2230    -5.2667 C.ar    
  49 C49            1.8110    14.9850    -6.6332 C.ar    
  50 C50            2.4655    13.8777    -7.1261 C.ar    
  51 N51           -4.6551    11.0231    -0.2072 N.am    
  52 C52           -3.8989     9.5228    -2.0047 C.3     
  53 C53           -5.1394     8.6734    -1.9007 C.ar    
  54 C54           -6.1433     8.7984    -2.8424 C.ar    
  55 C55           -7.2814     8.0191    -2.7470 C.ar    
  56 C56           -7.4149     7.1149    -1.7102 C.ar    
  57 C57           -6.4103     6.9893    -0.7688 C.ar    
  58 C58           -5.2706     7.7652    -0.8666 C.ar    
  59 C59           -4.0283     8.3821     3.7591 C.2     
  60 O60           -5.2162     8.2739     3.9786 O.2     
  61 C61           -0.7242    12.6793    -0.3091 C.3     
  62 C62           -0.8808    13.7155     0.8056 C.3     
  63 N63           -0.7275    13.0600     2.1068 N.pl3   
  64 C64           -0.8289    13.7961     3.2636 C.2     
  65 N65           -0.6850    13.1810     4.4847 N.pl3   
  66 N66           -1.0614    15.0772     3.2026 N.2     
  67 N67           -3.5799     9.2178     2.7825 N.am    
  68 C68           -4.6067     9.9648     2.0289 C.3     
  69 C69           -4.2192     9.9896     0.5728 C.2     
  70 O70           -3.5329     9.1076     0.1016 O.2     
  71 C71           -4.6929    11.3966     2.5610 C.3     
  72 C72           -5.1833    11.3744     3.9858 C.2     
  73 O73           -5.4388    10.3174     4.5227 O.2     
  74 N74           -5.3381    12.5291     4.6633 N.am    
  75 O75           -0.1523     7.2044     3.4919 O.2     
  76 C76           -5.9977     9.7842    -3.9728 C.3     
  77 H77           -0.1519     1.3178     5.4624 H       
  78 H78           -1.4797     1.5399     6.6269 H       
  79 H79           -1.6834     0.4372     5.2445 H       
  80 H80            0.0233     3.0825     4.0289 H       
  81 H81           -0.6264     4.8701     2.6988 H       
  82 H82           -3.2202     3.2635     2.6950 H       
  83 H83           -2.8980     4.6644     1.6453 H       
  84 H84           -0.9328     3.4945     0.6872 H       
  85 H85           -1.2550     2.0936     1.7369 H       
  86 H86           -3.4794     1.8119     0.6780 H       
  87 H87           -3.1572     3.2128    -0.3716 H       
  88 H88           -1.0459     1.3630    -0.6832 H       
  89 H89           -1.0783    -0.0600    -2.5923 H       
  90 H90           -2.5205    -0.3391    -3.4076 H       
  91 H91           -4.4621     0.6773    -2.6471 H       
  92 H92           -2.0476     6.9030     2.8105 H       
  93 H93           -3.5426     7.0592     5.3620 H       
  94 H94           -1.6496     9.2411     4.4047 H       
  95 H95           -2.4523     9.1034     5.9872 H       
  96 H96           -0.3448     8.2811     6.5279 H       
  97 H97           -1.1556     6.7696     6.0525 H       
  98 H98            1.8328     8.0393     5.7496 H       
  99 H99            3.4278     7.2483     4.1177 H       
 100 H100           2.0546     6.7583     3.0918 H       
 101 H101           1.6019     9.3371     2.9022 H       
 102 H102           3.2898     9.5028     3.4427 H       
 103 H103           3.5672     7.5739     1.5219 H       
 104 H104           2.2039     8.5033     0.8544 H       
 105 H105           3.8373    10.5449     1.6346 H       
 106 H106           4.2391     9.3333    -1.0470 H       
 107 H107           5.4636     9.6134     3.2732 H       
 108 H108           6.8998     8.9693     2.6856 H       
 109 H109           2.5499    10.2951    -2.6829 H       
 110 H110           1.5774    13.0418    -2.0045 H       
 111 H111           4.0721    12.9092    -2.2666 H       
 112 H112           4.8426    11.3361    -2.5829 H       
 113 H113          -0.8883    12.7995    -3.7497 H       
 114 H114          -2.0787    10.5710    -3.1117 H       
 115 H115          -0.0672    14.0695    -1.8179 H       
 116 H116          -1.8347    13.8970    -1.6965 H       
 117 H117          -5.0426    11.3343    -2.2607 H       
 118 H118           3.9819    11.4105    -7.2784 H       
 119 H119           4.7451    10.4227    -5.0581 H       
 120 H120           2.2923    14.5522    -3.3245 H       
 121 H121           1.2357    16.0963    -4.8967 H       
 122 H122           1.3392    15.6754    -7.3167 H       
 123 H123           2.5058    13.7016    -8.1909 H       
 124 H124          -5.2008    11.7440     0.1442 H       
 125 H125          -3.5232     9.4936    -3.0274 H       
 126 H126          -3.1372     9.1380    -1.3266 H       
 127 H127          -8.0662     8.1172    -3.4824 H       
 128 H128          -8.3043     6.5067    -1.6353 H       
 129 H129          -6.5148     6.2830     0.0415 H       
 130 H130          -4.4858     7.6671    -0.1312 H       
 131 H131          -1.4869    11.9085    -0.1984 H       
 132 H132           0.2642    12.2241    -0.2458 H       
 133 H133          -0.1181    14.4863     0.6950 H       
 134 H134          -1.8692    14.1707     0.7423 H       
 135 H135          -0.5544    12.1067     2.1522 H       
 136 H136          -0.5119    12.2276     4.5300 H       
 137 H137          -0.7565    13.7003     5.3008 H       
 138 H138          -1.1330    15.5965     4.0187 H       
 139 H139          -2.6341     9.3177     2.5917 H       
 140 H140          -5.5727     9.4725     2.1414 H       
 141 H141          -3.7061    11.8582     2.5236 H       
 142 H142          -5.3863    11.9713     1.9470 H       
 143 H143          -5.1337    13.3746     4.2339 H       
 144 H144          -5.6538    12.5148     5.5804 H       
 145 H145          -5.5141     9.2972    -4.8196 H       
 146 H146          -6.9830    10.1410    -4.2730 H       
 147 H147          -5.3907    10.6276    -3.6435 H       
@<TRIPOS>BOND
   1    1    2 1
   2    1    3 am
   3    1    4 2
   4    2   77 1
   5    2   78 1
   6    2   79 1
   7    3    5 1
   8    3   80 1
   9    5    6 1
  10    5    7 1
  11    5   81 1
  12    6    8 1
  13    6   82 1
  14    6   83 1
  15    7   14 2
  16    7   15 am
  17    8    9 1
  18    8   84 1
  19    8   85 1
  20    9   10 1
  21    9   86 1
  22    9   87 1
  23   10   11 1
  24   10   88 1
  25   11   12 1
  26   11   13 2
  27   12   89 1
  28   12   90 1
  29   13   91 1
  30   15   16 1
  31   15   92 1
  32   16   17 1
  33   16   59 1
  34   16   93 1
  35   17   18 1
  36   17   94 1
  37   17   95 1
  38   18   19 1
  39   18   96 1
  40   18   97 1
  41   19   20 am
  42   19   75 2
  43   20   21 1
  44   20   98 1
  45   21   22 1
  46   21   99 1
  47   21  100 1
  48   22   23 1
  49   22  101 1
  50   22  102 1
  51   23   24 1
  52   23  103 1
  53   23  104 1
  54   24   25 1
  55   24   26 1
  56   24  105 1
  57   25   29 am
  58   25  106 1
  59   26   27 am
  60   26   28 2
  61   27  107 1
  62   27  108 1
  63   29   30 2
  64   29   31 1
  65   31   32 1
  66   31   33 1
  67   31  109 1
  68   32   34 am
  69   32  110 1
  70   33   42 1
  71   33  111 1
  72   33  112 1
  73   34   35 2
  74   34   36 1
  75   36   37 1
  76   36   38 1
  77   36  113 1
  78   37   39 am
  79   37  114 1
  80   38   61 1
  81   38  115 1
  82   38  116 1
  83   39   40 2
  84   39   41 1
  85   41   51 1
  86   41   52 1
  87   41  117 1
  88   42   43 1
  89   42   46 2
  90   43   44 ar
  91   43   47 ar
  92   44   45 1
  93   44   50 ar
  94   45   46 1
  95   45  118 1
  96   46  119 1
  97   47   48 ar
  98   47  120 1
  99   48   49 ar
 100   48  121 1
 101   49   50 ar
 102   49  122 1
 103   50  123 1
 104   51   69 am
 105   51  124 1
 106   52   53 1
 107   52  125 1
 108   52  126 1
 109   53   54 ar
 110   53   58 ar
 111   54   55 ar
 112   54   76 1
 113   55   56 ar
 114   55  127 1
 115   56   57 ar
 116   56  128 1
 117   57   58 ar
 118   57  129 1
 119   58  130 1
 120   59   60 2
 121   59   67 am
 122   61   62 1
 123   61  131 1
 124   61  132 1
 125   62   63 1
 126   62  133 1
 127   62  134 1
 128   63   64 1
 129   63  135 1
 130   64   65 1
 131   64   66 2
 132   65  136 1
 133   65  137 1
 134   66  138 1
 135   67   68 1
 136   67  139 1
 137   68   69 1
 138   68   71 1
 139   68  140 1
 140   69   70 2
 141   71   72 1
 142   71  141 1
 143   71  142 1
 144   72   73 2
 145   72   74 am
 146   74  143 1
 147   74  144 1
 148   76  145 1
 149   76  146 1
 150   76  147 1

#	End of record

