#	Name: ASD01903249
#	Creating user name:	WinNT
#	Creation time:	15. 06. 2019 19:54

#	Modifying user name:	WinNT
#	Modification time:	15. 06. 2019 19:54

#	Program:	/corina/corina34_cracker 3.40 0067  02.08.2006

@<TRIPOS>MOLECULE
ASD01903249
  35   38    0    0    0
SMALL
NO_CHARGES


@<TRIPOS>ATOM
   1 S1            -0.0211     1.7049     0.0114 S.3     
   2 C2             0.0021    -0.0041     0.0020 C.2     
   3 N3             1.2221    -0.4387    -0.0120 N.2     
   4 C4             2.1845     0.4751    -0.0162 C.2     
   5 C5             1.7399     1.7439    -0.0052 C.2     
   6 N6            -1.1265    -0.8116     0.0089 N.pl3   
   7 C7            -0.9916    -2.1911     0.0001 C.ar    
   8 C8             3.6284     0.1262    -0.0314 C.2     
   9 C9             4.6496     0.8393    -0.6882 C.2     
  10 N10            5.7813     0.2232    -0.4695 N.2     
  11 N11            5.5296    -0.8989     0.3293 N.pl3   
  12 C12            4.2063    -0.9396     0.5930 C.2     
  13 N13           -2.0795    -2.9472     0.0069 N.ar    
  14 C14           -1.9860    -4.2665    -0.0016 C.ar    
  15 C15           -0.7312    -4.8553    -0.0176 C.ar    
  16 C16            0.3858    -4.0345    -0.0243 C.ar    
  17 N17            0.2220    -2.7220    -0.0202 N.ar    
  18 C18            2.5979     2.9827    -0.0072 C.3     
  19 C19            2.3575     3.8967    -1.2203 C.3     
  20 C20            2.4829     5.0842    -0.2513 C.3     
  21 C21            2.0382     4.1212     0.8621 C.3     
  22 H22           -2.0097    -0.4107     0.0198 H       
  23 H23            4.5201     1.7389    -1.2716 H       
  24 H24            6.1919    -1.5348     0.6422 H       
  25 H25            3.6965    -1.6853     1.1850 H       
  26 H26           -2.8764    -4.8776     0.0043 H       
  27 H27           -0.6261    -5.9302    -0.0245 H       
  28 H28            1.3778    -4.4615    -0.0368 H       
  29 H29            3.6508     2.7686     0.1763 H       
  30 H30            3.1534     3.8539    -1.9638 H       
  31 H31            1.3639     3.7917    -1.6560 H       
  32 H32            3.5044     5.4458    -0.1337 H       
  33 H33            1.7694     5.8846    -0.4470 H       
  34 H34            0.9574     4.0775     0.9958 H       
  35 H35            2.5765     4.2596     1.7998 H       
@<TRIPOS>BOND
   1    1    2 1
   2    1    5 1
   3    2    3 2
   4    2    6 1
   5    3    4 1
   6    4    5 2
   7    4    8 1
   8    5   18 1
   9    6    7 1
  10    6   22 1
  11    7   13 ar
  12    7   17 ar
  13    8    9 1
  14    8   12 2
  15    9   10 2
  16    9   23 1
  17   10   11 1
  18   11   12 1
  19   11   24 1
  20   12   25 1
  21   13   14 ar
  22   14   15 ar
  23   14   26 1
  24   15   16 ar
  25   15   27 1
  26   16   17 ar
  27   16   28 1
  28   18   19 1
  29   18   21 1
  30   18   29 1
  31   19   20 1
  32   19   30 1
  33   19   31 1
  34   20   21 1
  35   20   32 1
  36   20   33 1
  37   21   34 1
  38   21   35 1

#	End of record

