#	Name: ASD03330525
#	Creating user name:	WinNT
#	Creation time:	15. 06. 2019 20:37

#	Modifying user name:	WinNT
#	Modification time:	15. 06. 2019 20:37

#	Program:	/corina/corina34_cracker 3.40 0067  02.08.2006

@<TRIPOS>MOLECULE
ASD03330525
  72   74    0    0    0
SMALL
NO_CHARGES


@<TRIPOS>ATOM
   1 C1            -0.0467     1.9676     1.7945 C.2     
   2 N2            -0.1247     0.6757     2.2135 N.pl3   
   3 C3             1.2225     2.1836     1.3576 C.2     
   4 N4             1.8982     1.0195     1.4719 N.2     
   5 C5             1.0986     0.1078     1.9697 C.2     
   6 C6             1.4580    -1.3035     2.2265 C.ar    
   7 C7             1.7630     3.4571     0.8503 C.2     
   8 O8             1.0505     4.4412     0.7951 O.2     
   9 C9             3.5845     4.7975    -0.0567 C.3     
  10 N10            3.0471     3.5314     0.4476 N.am    
  11 C11            3.2629     4.9307    -1.5466 C.3     
  12 C12            1.7519     4.8101    -1.7549 C.3     
  13 C13            3.7401     6.2938    -2.0515 C.3     
  14 C14            3.9749     3.8213    -2.3232 C.3     
  15 C15            5.0785     4.8225     0.1388 C.2     
  16 N16            5.7535     5.9837     0.0268 N.am    
  17 O17            5.6735     3.7977     0.3970 O.2     
  18 C18            7.2138     5.9963     0.1435 C.3     
  19 C19            1.1262    -1.9008     3.4432 C.ar    
  20 C20            2.1261    -2.0463     1.2496 C.ar    
  21 C21            2.4584    -3.3651     1.4965 C.ar    
  22 C22            2.1300    -3.9485     2.7076 C.ar    
  23 C23            1.4634    -3.2174     3.6772 C.ar    
  24 C24           -1.2605    -0.0103     2.8402 C.3     
  25 C25           -2.5842     0.5931     2.3699 C.3     
  26 C26           -2.9350     1.8182     3.2280 C.3     
  27 N27           -1.8960     2.8244     3.0772 N.am    
  28 C28           -1.1970     2.9384     1.7909 C.3     
  29 C29           -1.5798     3.6403     4.1023 C.2     
  30 O30           -2.1644     3.5383     5.1626 O.2     
  31 O31           -0.6161     4.5683     3.9515 O.3     
  32 C32           -0.3284     5.4122     5.0975 C.3     
  33 C33            0.1202     4.5409     6.2726 C.3     
  34 C34            0.7858     6.3973     4.7386 C.3     
  35 C35           -1.5880     6.1874     5.4891 C.3     
  36 F36            2.4461    -1.4772     0.0668 F       
  37 Cl37           2.5498    -5.6054     3.0109 Cl      
  38 H38            3.1328     5.6266     0.4880 H       
  39 H39            3.6154     2.7465     0.4917 H       
  40 H40            1.2446     5.6004    -1.2017 H       
  41 H41            1.5228     4.9049    -2.8163 H       
  42 H42            1.4119     3.8389    -1.3952 H       
  43 H43            4.7849     6.4378    -1.7763 H       
  44 H44            3.6412     6.3345    -3.1362 H       
  45 H45            3.1342     7.0804    -1.6017 H       
  46 H46            3.6350     2.8502    -1.9635 H       
  47 H47            3.7458     3.9162    -3.3846 H       
  48 H48            5.0514     3.9073    -2.1748 H       
  49 H49            5.2724     6.8110    -0.1310 H       
  50 H50            7.5033     5.6169     1.1235 H       
  51 H51            7.6458     5.3647    -0.6328 H       
  52 H52            7.5788     7.0167     0.0265 H       
  53 H53            0.6065    -1.3328     4.2006 H       
  54 H54            2.9748    -3.9412     0.7430 H       
  55 H55            1.2103    -3.6786     4.6204 H       
  56 H56           -1.2330    -1.0668     2.5738 H       
  57 H57           -1.1859     0.0881     3.9232 H       
  58 H58           -2.4938     0.8957     1.3267 H       
  59 H59           -3.3746    -0.1518     2.4622 H       
  60 H60           -3.8901     2.2297     2.9015 H       
  61 H61           -3.0049     1.5215     4.2745 H       
  62 H62           -0.8210     3.9537     1.6652 H       
  63 H63           -1.8809     2.6954     0.9778 H       
  64 H64            1.0175     3.9886     5.9936 H       
  65 H65            0.3361     5.1744     7.1329 H       
  66 H66           -0.6736     3.8391     6.5283 H       
  67 H67            0.4663     7.0180     3.9015 H       
  68 H68            1.0018     7.0308     5.5989 H       
  69 H69            1.6832     5.8451     4.4596 H       
  70 H70           -2.3818     5.4855     5.7448 H       
  71 H71           -1.3720     6.8208     6.3494 H       
  72 H72           -1.9076     6.8080     4.6520 H       
@<TRIPOS>BOND
   1    1    2 1
   2    1    3 2
   3    1   28 1
   4    2   24 1
   5    2    5 1
   6    3    4 1
   7    3    7 1
   8    4    5 2
   9    5    6 1
  10    6   19 ar
  11    6   20 ar
  12    7    8 2
  13    7   10 am
  14    9   10 1
  15    9   11 1
  16    9   15 1
  17    9   38 1
  18   10   39 1
  19   11   12 1
  20   11   13 1
  21   11   14 1
  22   12   40 1
  23   12   41 1
  24   12   42 1
  25   13   43 1
  26   13   44 1
  27   13   45 1
  28   14   46 1
  29   14   47 1
  30   14   48 1
  31   15   16 am
  32   15   17 2
  33   16   18 1
  34   16   49 1
  35   18   50 1
  36   18   51 1
  37   18   52 1
  38   19   23 ar
  39   19   53 1
  40   20   21 ar
  41   20   36 1
  42   21   22 ar
  43   21   54 1
  44   22   23 ar
  45   22   37 1
  46   23   55 1
  47   24   25 1
  48   24   56 1
  49   24   57 1
  50   25   26 1
  51   25   58 1
  52   25   59 1
  53   26   27 1
  54   26   60 1
  55   26   61 1
  56   27   28 1
  57   27   29 am
  58   28   62 1
  59   28   63 1
  60   29   30 2
  61   29   31 1
  62   31   32 1
  63   32   33 1
  64   32   34 1
  65   32   35 1
  66   33   64 1
  67   33   65 1
  68   33   66 1
  69   34   67 1
  70   34   68 1
  71   34   69 1
  72   35   70 1
  73   35   71 1
  74   35   72 1

#	End of record

