#	Name: ASD01884341
#	Creating user name:	WinNT
#	Creation time:	15. 06. 2019 19:48

#	Modifying user name:	WinNT
#	Modification time:	15. 06. 2019 19:48

#	Program:	/corina/corina34_cracker 3.40 0067  02.08.2006

@<TRIPOS>MOLECULE
ASD01884341
  61   64    0    0    0
SMALL
NO_CHARGES


@<TRIPOS>ATOM
   1 C1            -0.9112     0.0311    -0.9465 C.2     
   2 C2             0.0106    -0.0003     0.1094 C.2     
   3 C3            -0.2978     0.6832     1.2969 C.2     
   4 C4            -1.4660     1.3555     1.4068 C.2     
   5 N5            -2.3605     1.3876     0.3861 N.am    
   6 C6            -2.1157     0.7559    -0.7772 C.2     
   7 O7            -2.9343     0.7995    -1.6798 O.2     
   8 C8            -3.6133     2.1288     0.5516 C.3     
   9 C9            -0.6372    -0.6520    -2.1749 C.1     
  10 N10           -0.4198    -1.1939    -3.1493 N.1     
  11 N11            2.3524     0.1830    -0.1367 N.3     
  12 C12            2.0489     1.5562     0.2899 C.3     
  13 C13            3.3226     2.4021     0.2213 C.3     
  14 N14            3.8463     2.3839    -1.1516 N.3     
  15 C15            4.1498     1.0107    -1.5783 C.3     
  16 C16            2.8761     0.1648    -1.5097 C.3     
  17 C17            5.0284     3.2471    -1.2757 C.3     
  18 C18           -3.4183     3.5525     0.0979 C.ar    
  19 O19            1.1751    -0.6767    -0.0132 O.3     
  20 C20            5.6799     3.0173    -2.6150 C.ar    
  21 C21            5.2993     3.7736    -3.7074 C.ar    
  22 C22            5.8969     3.5628    -4.9362 C.ar    
  23 C23            6.8750     2.5957    -5.0721 C.ar    
  24 C24            7.2561     1.8395    -3.9792 C.ar    
  25 C25            6.6623     2.0539    -2.7497 C.ar    
  26 C26           -3.6582     3.8960    -1.2198 C.ar    
  27 C27           -3.4803     5.2004    -1.6382 C.ar    
  28 C28           -3.0604     6.1662    -0.7351 C.ar    
  29 C29           -2.8204     5.8191     0.5865 C.ar    
  30 C30           -3.0053     4.5144     1.0012 C.ar    
  31 C31            5.4816     4.3870    -6.1275 C.3     
  32 F32            6.2770     5.5356    -6.2000 F       
  33 F33            5.6430     3.6335    -7.2951 F       
  34 F34            4.1392     4.7572    -5.9932 F       
  35 O35           -2.8842     7.4501    -1.1444 O.3     
  36 C36           -2.4505     8.3910    -0.1602 C.3     
  37 F37           -1.2146     7.9884     0.3571 F       
  38 F38           -2.3209     9.6540    -0.7477 F       
  39 F39           -3.3912     8.4517     0.8735 F       
  40 H40            0.3981     0.6716     2.1227 H       
  41 H41           -1.6920     1.8770     2.3251 H       
  42 H42           -4.3944     1.6603    -0.0472 H       
  43 H43           -3.9053     2.1188     1.6017 H       
  44 H44            1.2929     1.9830    -0.3691 H       
  45 H45            1.6748     1.5446     1.3136 H       
  46 H46            3.0937     3.4280     0.5096 H       
  47 H47            4.0692     1.9910     0.9008 H       
  48 H48            4.5239     1.0223    -2.6020 H       
  49 H49            4.9058     0.5838    -0.9192 H       
  50 H50            3.1050    -0.8612    -1.7980 H       
  51 H51            2.1295     0.5759    -2.1892 H       
  52 H52            4.7262     4.2911    -1.1929 H       
  53 H53            5.7365     3.0098    -0.4817 H       
  54 H54            4.5348     4.5290    -3.6013 H       
  55 H55            7.3414     2.4305    -6.0321 H       
  56 H56            8.0201     1.0836    -4.0855 H       
  57 H57            6.9600     1.4632    -1.8959 H       
  58 H58           -3.9847     3.1437    -1.9226 H       
  59 H59           -3.6675     5.4681    -2.6676 H       
  60 H60           -2.4935     6.5691     1.2915 H       
  61 H61           -2.8185     4.2436     2.0299 H       
@<TRIPOS>BOND
   1    1    2 2
   2    1    9 1
   3    1    6 1
   4    2    3 1
   5    2   19 1
   6    3    4 2
   7    3   40 1
   8    4    5 1
   9    4   41 1
  10    5    6 am
  11    5    8 1
  12    6    7 2
  13    8   18 1
  14    8   42 1
  15    8   43 1
  16    9   10 3
  17   11   12 1
  18   11   16 1
  19   11   19 1
  20   12   13 1
  21   12   44 1
  22   12   45 1
  23   13   14 1
  24   13   46 1
  25   13   47 1
  26   14   15 1
  27   14   17 1
  28   15   16 1
  29   15   48 1
  30   15   49 1
  31   16   50 1
  32   16   51 1
  33   17   20 1
  34   17   52 1
  35   17   53 1
  36   18   26 ar
  37   18   30 ar
  38   20   21 ar
  39   20   25 ar
  40   21   22 ar
  41   21   54 1
  42   22   31 1
  43   22   23 ar
  44   23   24 ar
  45   23   55 1
  46   24   25 ar
  47   24   56 1
  48   25   57 1
  49   26   27 ar
  50   26   58 1
  51   27   28 ar
  52   27   59 1
  53   28   35 1
  54   28   29 ar
  55   29   30 ar
  56   29   60 1
  57   30   61 1
  58   31   32 1
  59   31   33 1
  60   31   34 1
  61   35   36 1
  62   36   37 1
  63   36   38 1
  64   36   39 1

#	End of record

