#	Name: ASD01811223
#	Creating user name:	WinNT
#	Creation time:	15. 06. 2019 19:26

#	Modifying user name:	WinNT
#	Modification time:	15. 06. 2019 19:26

#	Program:	/corina/corina34_cracker 3.40 0067  02.08.2006

@<TRIPOS>MOLECULE
ASD01811223
  58   61    0    0    0
SMALL
NO_CHARGES


@<TRIPOS>ATOM
   1 C1            -7.6589     1.7798     2.5553 C.1     
   2 C2            -6.5144     2.6129     2.3391 C.ar    
   3 C3            -5.2699     2.2418     2.8520 C.ar    
   4 C4            -4.1716     3.0492     2.6400 C.ar    
   5 C5            -4.3013     4.2244     1.9215 C.ar    
   6 C6            -5.5316     4.5984     1.4108 C.ar    
   7 C7            -6.6368     3.7972     1.6095 C.ar    
   8 N8            -8.5668     1.1189     2.7267 N.1     
   9 N9            -1.7465     7.5852     1.6070 N.am    
  10 C10           -2.1666     6.9799     0.3359 C.3     
  11 C11           -3.4042     6.1130     0.5878 C.3     
  12 C12           -3.0970     5.1015     1.6944 C.3     
  13 C13           -2.7569     5.8455     2.9879 C.3     
  14 C14           -1.5119     6.7093     2.7632 C.3     
  15 F15           -2.0088     4.3094     1.3128 F       
  16 C16           -1.5741     8.9180     1.7091 C.2     
  17 C17           -1.2235     9.5204     3.0132 C.ar    
  18 C18           -2.0208    10.5330     3.5534 C.ar    
  19 C19           -1.6961    11.0977     4.7711 C.ar    
  20 C20           -0.5827    10.6674     5.4642 C.ar    
  21 C21            0.2254     9.6546     4.9355 C.ar    
  22 C22           -0.1017     9.0759     3.7078 C.ar    
  23 O23           -1.7068     9.6248     0.7292 O.2     
  24 C24           -3.2383    11.0105     2.8047 C.3     
  25 C25           -0.2364    11.2897     6.7923 C.3     
  26 C26           -0.0569    12.8157     6.7294 C.3     
  27 C27           -0.7919    12.8788     8.0787 C.3     
  28 C28           -1.4589    11.5493     7.6884 C.3     
  29 C29            1.4131     9.1967     5.6744 C.2     
  30 O30            1.6343     9.6200     6.7889 O.2     
  31 C31            2.3543     8.2017     5.0457 C.3     
  32 Br32           3.8224     7.8096     6.2932 Br      
  33 H33           -5.1674     1.3251     3.4136 H       
  34 H34           -3.2084     2.7634     3.0362 H       
  35 H35           -5.6259     5.5173     0.8511 H       
  36 H36           -7.5956     4.0879     1.2063 H       
  37 H37           -2.4099     7.7650    -0.3799 H       
  38 H38           -1.3606     6.3605    -0.0579 H       
  39 H39           -4.2360     6.7469     0.8951 H       
  40 H40           -3.6691     5.5824    -0.3268 H       
  41 H41           -3.5948     6.4819     3.2725 H       
  42 H42           -2.5611     5.1245     3.7816 H       
  43 H43           -0.6526     6.0679     2.5673 H       
  44 H44           -1.3234     7.3160     3.6489 H       
  45 H45           -2.3162    11.8801     5.1830 H       
  46 H46            0.5150     8.2903     3.2967 H       
  47 H47           -4.0831    10.3605     3.0326 H       
  48 H48           -3.4734    12.0312     3.1065 H       
  49 H49           -3.0392    10.9852     1.7333 H       
  50 H50            0.5783    10.7748     7.3014 H       
  51 H51            0.9837    13.1355     6.7837 H       
  52 H52           -0.6033    13.2863     5.9121 H       
  53 H53           -0.1298    12.7985     8.9408 H       
  54 H54           -1.4908    13.7116     8.1567 H       
  55 H55           -2.3887    11.6737     7.1332 H       
  56 H56           -1.5502    10.8468     8.5168 H       
  57 H57            1.8138     7.2824     4.8204 H       
  58 H58            2.7617     8.6187     4.1247 H       
@<TRIPOS>BOND
   1    1    2 1
   2    1    8 3
   3    2    3 ar
   4    2    7 ar
   5    3    4 ar
   6    3   33 1
   7    4    5 ar
   8    4   34 1
   9    5    6 ar
  10    5   12 1
  11    6    7 ar
  12    6   35 1
  13    7   36 1
  14    9   10 1
  15    9   14 1
  16    9   16 am
  17   10   11 1
  18   10   37 1
  19   10   38 1
  20   11   12 1
  21   11   39 1
  22   11   40 1
  23   12   13 1
  24   12   15 1
  25   13   14 1
  26   13   41 1
  27   13   42 1
  28   14   43 1
  29   14   44 1
  30   16   17 1
  31   16   23 2
  32   17   18 ar
  33   17   22 ar
  34   18   19 ar
  35   18   24 1
  36   19   20 ar
  37   19   45 1
  38   20   21 ar
  39   20   25 1
  40   21   22 ar
  41   21   29 1
  42   22   46 1
  43   24   47 1
  44   24   48 1
  45   24   49 1
  46   25   26 1
  47   25   28 1
  48   25   50 1
  49   26   27 1
  50   26   51 1
  51   26   52 1
  52   27   28 1
  53   27   53 1
  54   27   54 1
  55   28   55 1
  56   28   56 1
  57   29   30 2
  58   29   31 1
  59   31   32 1
  60   31   57 1
  61   31   58 1

#	End of record

