#	Name: ASD03330794
#	Creating user name:	WinNT
#	Creation time:	15. 06. 2019 20:38

#	Modifying user name:	WinNT
#	Modification time:	15. 06. 2019 20:38

#	Program:	/corina/corina34_cracker 3.40 0067  02.08.2006

@<TRIPOS>MOLECULE
ASD03330794
  60   62    0    0    0
SMALL
NO_CHARGES


@<TRIPOS>ATOM
   1 C1             0.7794     1.4278     0.2193 C.2     
   2 N2             0.6851     0.0722     0.2674 N.pl3   
   3 C3             2.0966     1.7318     0.0551 C.2     
   4 N4             2.7828     0.5697    -0.0120 N.2     
   5 C5             1.9429    -0.4317     0.1088 C.2     
   6 C6             2.3003    -1.8664     0.0784 C.ar    
   7 C7             2.6709     3.0859    -0.0340 C.2     
   8 O8             1.9463     4.0598     0.0400 O.2     
   9 C9             4.5702     4.5913    -0.2860 C.3     
  10 N10            3.9993     3.2451    -0.1974 N.am    
  11 C11            5.8892     4.5360    -1.0594 C.3     
  12 C12            4.8234     5.1219     1.1016 C.2     
  13 O13            4.5535     4.4424     2.0693 O.2     
  14 C14           -0.5522    -0.6868     0.4689 C.3     
  15 C15           -1.6387    -0.1315    -0.4573 C.3     
  16 C16           -2.3659     1.0184     0.2322 C.3     
  17 N17           -1.4560     1.7770     1.0927 N.3     
  18 C18           -0.3729     2.3941     0.3127 C.3     
  19 C19            1.8059    -2.7325     1.0545 C.ar    
  20 C20            2.1425    -4.0694     1.0214 C.ar    
  21 C21           -2.1862     2.7870     1.8702 C.3     
  22 N22            5.3498     6.3515     1.2673 N.am    
  23 C23            2.9699    -4.5548     0.0220 C.ar    
  24 C24            5.6111     4.1580    -2.5156 C.3     
  25 C25            3.1299    -2.3615    -0.9311 C.ar    
  26 C26            3.4644    -3.7026    -0.9497 C.ar    
  27 F27            3.6083    -1.5308    -1.8830 F       
  28 C28            4.5832     5.1252    -3.1062 C.3     
  29 C29            6.9096     4.2396    -3.3206 C.3     
  30 C30            5.0623     2.7310    -2.5762 C.3     
  31 Cl31           3.3886    -6.2392    -0.0112 Cl      
  32 H32            3.8723     5.2486    -0.8045 H       
  33 H33            4.5772     2.4683    -0.2564 H       
  34 H34            6.3727     5.5123    -1.0234 H       
  35 H35            6.5435     3.7897    -0.6089 H       
  36 H36           -0.3772    -1.7372     0.2364 H       
  37 H37           -0.8737    -0.5909     1.5060 H       
  38 H38           -1.1803     0.2297    -1.3779 H       
  39 H39           -2.3517    -0.9213    -0.6940 H       
  40 H40           -2.7808     1.6842    -0.5246 H       
  41 H41           -3.1783     0.6161     0.8374 H       
  42 H42           -0.0430     3.3080     0.8067 H       
  43 H43           -0.7333     2.6293    -0.6887 H       
  44 H44            1.1610    -2.3563     1.8348 H       
  45 H45            1.7602    -4.7398     1.7769 H       
  46 H46           -2.9306     2.2952     2.4964 H       
  47 H47           -1.4866     3.3359     2.5006 H       
  48 H48           -2.6831     3.4794     1.1907 H       
  49 H49            5.5657     6.8949     0.4934 H       
  50 H50            5.5128     6.6930     2.1605 H       
  51 H51            4.1058    -4.0876    -1.7287 H       
  52 H52            4.9741     6.1417    -3.0631 H       
  53 H53            4.3850     4.8558    -4.1437 H       
  54 H54            3.6581     5.0670    -2.5327 H       
  55 H55            7.6419     3.5505    -2.8999 H       
  56 H56            6.7114     3.9702    -4.3581 H       
  57 H57            7.3005     5.2561    -3.2775 H       
  58 H58            4.0626     2.7075    -2.1423 H       
  59 H59            5.0154     2.4036    -3.6147 H       
  60 H60            5.7179     2.0655    -2.0146 H       
@<TRIPOS>BOND
   1    1    2 1
   2    1    3 2
   3    1   18 1
   4    2   14 1
   5    2    5 1
   6    3    4 1
   7    3    7 1
   8    4    5 2
   9    5    6 1
  10    6   25 ar
  11    6   19 ar
  12    7    8 2
  13    7   10 am
  14    9   10 1
  15    9   11 1
  16    9   12 1
  17    9   32 1
  18   10   33 1
  19   11   24 1
  20   11   34 1
  21   11   35 1
  22   12   13 2
  23   12   22 am
  24   14   15 1
  25   14   36 1
  26   14   37 1
  27   15   16 1
  28   15   38 1
  29   15   39 1
  30   16   17 1
  31   16   40 1
  32   16   41 1
  33   17   18 1
  34   17   21 1
  35   18   42 1
  36   18   43 1
  37   19   20 ar
  38   19   44 1
  39   20   23 ar
  40   20   45 1
  41   21   46 1
  42   21   47 1
  43   21   48 1
  44   22   49 1
  45   22   50 1
  46   23   31 1
  47   23   26 ar
  48   24   28 1
  49   24   29 1
  50   24   30 1
  51   25   26 ar
  52   25   27 1
  53   26   51 1
  54   28   52 1
  55   28   53 1
  56   28   54 1
  57   29   55 1
  58   29   56 1
  59   29   57 1
  60   30   58 1
  61   30   59 1
  62   30   60 1

#	End of record

