#	Name: ASD01880279
#	Creating user name:	WinNT
#	Creation time:	15. 06. 2019 19:40

#	Modifying user name:	WinNT
#	Modification time:	15. 06. 2019 19:40

#	Program:	/corina/corina34_cracker 3.40 0067  02.08.2006

@<TRIPOS>MOLECULE
ASD01880279
  31   33    0    0    0
SMALL
NO_CHARGES


@<TRIPOS>ATOM
   1 C1            -0.0161     1.3387     0.0094 C.2     
   2 C2             0.0021    -0.0041     0.0020 C.2     
   3 N3             1.1645    -0.7202    -0.0129 N.am    
   4 C4             2.3750    -0.1274    -0.0213 C.2     
   5 C5             2.4553     1.3373    -0.0142 C.ar    
   6 C6             1.2490     2.0749     0.0013 C.ar    
   7 O7             3.3902    -0.7999    -0.0342 O.2     
   8 C8             1.0936    -2.1834    -0.0196 C.3     
   9 C9             1.0555    -2.6780    -1.4426 C.ar    
  10 C10            2.2341    -2.9626    -2.1068 C.ar    
  11 C11            2.2003    -3.4167    -3.4116 C.ar    
  12 C12            0.9854    -3.5865    -4.0537 C.ar    
  13 C13           -0.1944    -3.3012    -3.3875 C.ar    
  14 C14           -0.1584    -2.8523    -2.0809 C.ar    
  15 F15            0.9512    -4.0299    -5.3294 F       
  16 C16            3.6760     2.0118    -0.0219 C.ar    
  17 C17            3.6898     3.3792    -0.0142 C.ar    
  18 C18            2.5052     4.1042     0.0015 C.ar    
  19 C19            1.2940     3.4699     0.0074 C.ar    
  20 H20           -0.9560     1.8707     0.0167 H       
  21 H21           -0.9372    -0.5371     0.0085 H       
  22 H22            1.9700    -2.5919     0.4837 H       
  23 H23            0.1922    -2.5059     0.5015 H       
  24 H24            3.1816    -2.8297    -1.6058 H       
  25 H25            3.1211    -3.6386    -3.9304 H       
  26 H26           -1.1426    -3.4333    -3.8873 H       
  27 H27           -1.0785    -2.6297    -1.5611 H       
  28 H28            4.6033     1.4584    -0.0334 H       
  29 H29            4.6346     3.9025    -0.0201 H       
  30 H30            2.5413     5.1836     0.0077 H       
  31 H31            0.3792     4.0438     0.0193 H       
@<TRIPOS>BOND
   1    1    2 2
   2    1    6 1
   3    1   20 1
   4    2    3 1
   5    2   21 1
   6    3    4 am
   7    3    8 1
   8    4    5 1
   9    4    7 2
  10    5    6 ar
  11    5   16 ar
  12    6   19 ar
  13    8    9 1
  14    8   22 1
  15    8   23 1
  16    9   10 ar
  17    9   14 ar
  18   10   11 ar
  19   10   24 1
  20   11   12 ar
  21   11   25 1
  22   12   13 ar
  23   12   15 1
  24   13   14 ar
  25   13   26 1
  26   14   27 1
  27   16   17 ar
  28   16   28 1
  29   17   18 ar
  30   17   29 1
  31   18   19 ar
  32   18   30 1
  33   19   31 1

#	End of record

