#	Name: ASD03330544
#	Creating user name:	WinNT
#	Creation time:	15. 06. 2019 20:37

#	Modifying user name:	WinNT
#	Modification time:	15. 06. 2019 20:37

#	Program:	/corina/corina34_cracker 3.40 0067  02.08.2006

@<TRIPOS>MOLECULE
ASD03330544
  63   65    0    0    0
SMALL
NO_CHARGES


@<TRIPOS>ATOM
   1 C1             0.1988     2.1540    -1.0451 C.2     
   2 N2             0.2990     0.9139    -1.5790 N.pl3   
   3 C3             1.4547     2.5392    -0.6844 C.2     
   4 N4             2.3026     1.5417    -1.0171 N.2     
   5 C5             1.6173     0.5634    -1.5605 C.2     
   6 C6             2.1803    -0.7070    -2.0687 C.ar    
   7 C7             1.8224     3.8157    -0.0465 C.2     
   8 O8             0.9638     4.6398     0.2044 O.2     
   9 C9             3.4759     5.3390     0.8933 C.3     
  10 N10            3.1103     4.0700     0.2590 N.am    
  11 C11            3.2923     5.2237     2.4078 C.3     
  12 C12            4.1220     4.0510     2.9343 C.3     
  13 C13            3.7566     6.5184     3.0779 C.3     
  14 C14            1.8146     4.9864     2.7258 C.3     
  15 C15            4.9160     5.6582     0.5847 C.2     
  16 N16            5.3650     6.9239     0.6985 N.am    
  17 O17            5.6709     4.7762     0.2339 O.2     
  18 C18            6.7354     7.2536     0.2994 C.3     
  19 C19           -0.8215     0.1060    -2.0685 C.3     
  20 C20           -1.7157     0.9735    -2.9595 C.3     
  21 C21           -2.7556     1.6901    -2.1038 C.3     
  22 N22           -2.2101     2.0282    -0.7876 N.3     
  23 C23           -1.0717     2.9516    -0.9026 C.3     
  24 C24           -3.2516     2.5830     0.0873 C.3     
  25 C25            3.4749    -0.7416    -2.5874 C.ar    
  26 C26            3.9942    -1.9294    -3.0598 C.ar    
  27 C27            3.2339    -3.0846    -3.0197 C.ar    
  28 C28            1.9493    -3.0568    -2.5069 C.ar    
  29 C29            1.4209    -1.8765    -2.0258 C.ar    
  30 C30            3.8073    -4.3785    -3.5373 C.3     
  31 H31            2.8371     6.1344     0.5093 H       
  32 H32            3.7951     3.4128     0.0590 H       
  33 H33            5.1747     4.2200     2.7078 H       
  34 H34            3.9912     3.9689     4.0133 H       
  35 H35            3.7911     3.1286     2.4570 H       
  36 H36            3.1811     7.3570     2.6859 H       
  37 H37            3.6046     6.4451     4.1547 H       
  38 H38            4.8151     6.6756     2.8703 H       
  39 H39            1.4838     4.0641     2.2485 H       
  40 H40            1.6838     4.9043     3.8048 H       
  41 H41            1.2235     5.8219     2.3507 H       
  42 H42            4.7807     7.6165     1.0446 H       
  43 H43            6.9156     8.3162     0.4622 H       
  44 H44            7.4376     6.6706     0.8953 H       
  45 H45            6.8728     7.0194    -0.7562 H       
  46 H46           -0.4387    -0.7356    -2.6459 H       
  47 H47           -1.4002    -0.2648    -1.2225 H       
  48 H48           -1.1037     1.7106    -3.4793 H       
  49 H49           -2.2206     0.3422    -3.6907 H       
  50 H50           -3.0655     2.6051    -2.6086 H       
  51 H51           -3.6224     1.0416    -1.9762 H       
  52 H52           -1.0140     3.5721    -0.0083 H       
  53 H53           -1.2040     3.5857    -1.7793 H       
  54 H54           -4.0466     1.8486     0.2166 H       
  55 H55           -2.8195     2.8254     1.0582 H       
  56 H56           -3.6616     3.4866    -0.3638 H       
  57 H57            4.0693     0.1596    -2.6196 H       
  58 H58            4.9961    -1.9575    -3.4620 H       
  59 H59            1.3605    -3.9617    -2.4790 H       
  60 H60            0.4179    -1.8561    -1.6257 H       
  61 H61            4.3149    -4.9011    -2.7265 H       
  62 H62            3.0026    -5.0034    -3.9247 H       
  63 H63            4.5193    -4.1671    -4.3351 H       
@<TRIPOS>BOND
   1    1    2 1
   2    1    3 2
   3    1   23 1
   4    2   19 1
   5    2    5 1
   6    3    4 1
   7    3    7 1
   8    4    5 2
   9    5    6 1
  10    6   25 ar
  11    6   29 ar
  12    7    8 2
  13    7   10 am
  14    9   10 1
  15    9   11 1
  16    9   15 1
  17    9   31 1
  18   10   32 1
  19   11   12 1
  20   11   13 1
  21   11   14 1
  22   12   33 1
  23   12   34 1
  24   12   35 1
  25   13   36 1
  26   13   37 1
  27   13   38 1
  28   14   39 1
  29   14   40 1
  30   14   41 1
  31   15   16 am
  32   15   17 2
  33   16   18 1
  34   16   42 1
  35   18   43 1
  36   18   44 1
  37   18   45 1
  38   19   20 1
  39   19   46 1
  40   19   47 1
  41   20   21 1
  42   20   48 1
  43   20   49 1
  44   21   22 1
  45   21   50 1
  46   21   51 1
  47   22   23 1
  48   22   24 1
  49   23   52 1
  50   23   53 1
  51   24   54 1
  52   24   55 1
  53   24   56 1
  54   25   26 ar
  55   25   57 1
  56   26   27 ar
  57   26   58 1
  58   27   28 ar
  59   27   30 1
  60   28   29 ar
  61   28   59 1
  62   29   60 1
  63   30   61 1
  64   30   62 1
  65   30   63 1

#	End of record

