#	Name: ASD03081340
#	Creating user name:	WinNT
#	Creation time:	15. 06. 2019 20:27

#	Modifying user name:	WinNT
#	Modification time:	15. 06. 2019 20:27

#	Program:	/corina/corina34_cracker 3.40 0067  02.08.2006

@<TRIPOS>MOLECULE
ASD03081340
  30   32    0    0    0
SMALL
NO_CHARGES


@<TRIPOS>ATOM
   1 O1            -0.0162     1.3445     0.0094 O.3     
   2 C2             0.0021    -0.0041     0.0020 C.2     
   3 N3             1.2613    -0.3804    -0.0120 N.2     
   4 N4             2.0181     0.6602    -0.0137 N.2     
   5 C5             1.2730     1.7417    -0.0007 C.2     
   6 C6             0.8552     4.2024     0.0165 C.ar    
   7 C7             1.7578     3.1373     0.0021 C.ar    
   8 C8             3.1302     3.4142    -0.0090 C.ar    
   9 C9             3.5320     4.7385    -0.0053 C.ar    
  10 C10            2.5745     5.7366     0.0092 C.ar    
  11 N11            1.2875     5.4461     0.0194 N.ar    
  12 C12           -1.1757    -0.8939     0.0085 C.ar    
  13 C13           -1.0075    -2.2849    -0.0006 C.ar    
  14 C14           -2.1188    -3.1117     0.0061 C.ar    
  15 C15           -3.3888    -2.5661     0.0211 C.ar    
  16 C16           -3.5601    -1.1916     0.0302 C.ar    
  17 C17           -2.4628    -0.3541     0.0295 C.ar    
  18 O18            0.2404    -2.8205    -0.0163 O.3     
  19 C19            0.3343    -4.2464    -0.0248 C.3     
  20 Cl20          -5.1607    -0.5198     0.0485 Cl      
  21 H21           -0.2065     4.0045     0.0207 H       
  22 H22            3.8565     2.6150    -0.0199 H       
  23 H23            4.5822     4.9900    -0.0133 H       
  24 H24            2.8856     6.7708     0.0125 H       
  25 H25           -1.9929    -4.1843    -0.0009 H       
  26 H26           -4.2521    -3.2150     0.0256 H       
  27 H27           -2.5999     0.7171     0.0411 H       
  28 H28            1.3836    -4.5413    -0.0372 H       
  29 H29           -0.1453    -4.6474     0.8681 H       
  30 H30           -0.1637    -4.6381    -0.9118 H       
@<TRIPOS>BOND
   1    1    2 1
   2    1    5 1
   3    2    3 2
   4    2   12 1
   5    3    4 1
   6    4    5 2
   7    5    7 1
   8    6    7 ar
   9    6   11 ar
  10    6   21 1
  11    7    8 ar
  12    8    9 ar
  13    8   22 1
  14    9   10 ar
  15    9   23 1
  16   10   11 ar
  17   10   24 1
  18   12   13 ar
  19   12   17 ar
  20   13   14 ar
  21   13   18 1
  22   14   15 ar
  23   14   25 1
  24   15   16 ar
  25   15   26 1
  26   16   17 ar
  27   16   20 1
  28   17   27 1
  29   18   19 1
  30   19   28 1
  31   19   29 1
  32   19   30 1

#	End of record

