#	Name: ASD06020182
#	Creating user name:	WinNT
#	Creation time:	15. 06. 2019 21:04

#	Modifying user name:	WinNT
#	Modification time:	15. 06. 2019 21:04

#	Program:	/corina/corina34_cracker 3.40 0067  02.08.2006

@<TRIPOS>MOLECULE
ASD06020182
  25   27    0    0    0
SMALL
NO_CHARGES


@<TRIPOS>ATOM
   1 N1            -0.0384     1.3653    -0.3564 N.pl3   
   2 C2            -0.0087    -0.0155    -0.1812 C.ar    
   3 C3             1.2187    -0.6915    -0.1190 C.ar    
   4 C4             1.2351    -2.0768     0.0575 C.ar    
   5 C5             0.0466    -2.7704     0.1694 C.ar    
   6 C6            -1.1624    -2.0993     0.1070 C.ar    
   7 C7            -1.1932    -0.7286    -0.0615 C.ar    
   8 C8             6.0020     1.4828    -1.0737 C.ar    
   9 C9             4.7368     1.0086    -0.7443 C.ar    
  10 C10            3.9649     1.6960     0.2031 C.ar    
  11 C11            4.5366     2.8577     0.7785 C.ar    
  12 C12            5.7848     3.2484     0.3946 C.ar    
  13 N13            6.4787     2.5695    -0.5037 N.ar    
  14 S14            3.8156    -0.3831    -1.3036 S.3     
  15 C15            2.4855     0.0567    -0.2399 C.2     
  16 N16            2.7765     1.1299     0.4209 N.2     
  17 F17            3.8512     3.5714     1.6982 F       
  18 Cl18           2.7476    -2.9253     0.1356 Cl      
  19 H19            0.7841     1.8503    -0.5272 H       
  20 H20           -0.8821     1.8418    -0.3117 H       
  21 H21            0.0603    -3.8417     0.3059 H       
  22 H22           -2.0872    -2.6501     0.1952 H       
  23 H23           -2.1405    -0.2117    -0.1047 H       
  24 H24            6.6002     0.9525    -1.7999 H       
  25 H25            6.2178     4.1345     0.8347 H       
@<TRIPOS>BOND
   1    1    2 1
   2    1   19 1
   3    1   20 1
   4    2    3 ar
   5    2    7 ar
   6    3    4 ar
   7    3   15 1
   8    4    5 ar
   9    4   18 1
  10    5    6 ar
  11    5   21 1
  12    6    7 ar
  13    6   22 1
  14    7   23 1
  15    8    9 ar
  16    8   13 ar
  17    8   24 1
  18    9   10 ar
  19    9   14 1
  20   10   11 ar
  21   10   16 1
  22   11   12 ar
  23   11   17 1
  24   12   13 ar
  25   12   25 1
  26   14   15 1
  27   15   16 2

#	End of record

