#	Name: ASD04880450
#	Creating user name:	WinNT
#	Creation time:	15. 06. 2019 20:53

#	Modifying user name:	WinNT
#	Modification time:	15. 06. 2019 20:53

#	Program:	/corina/corina34_cracker 3.40 0067  02.08.2006

@<TRIPOS>MOLECULE
ASD04880450
  48   50    0    0    0
SMALL
NO_CHARGES


@<TRIPOS>ATOM
   1 C1            -0.0168     1.3889     0.0097 C.ar    
   2 C2             0.0021    -0.0041     0.0020 C.ar    
   3 C3            -1.1854    -0.7116     0.0091 C.ar    
   4 C4            -2.4030    -0.0263     0.0244 C.ar    
   5 C5            -2.4142     1.3708     0.0325 C.ar    
   6 C6            -1.2255     2.0697     0.0306 C.ar    
   7 O7             1.1520     2.0829     0.0022 O.3     
   8 C8             1.0600     3.5089     0.0108 C.3     
   9 C9             1.1336    -2.0958    -0.0200 C.3     
  10 O10            1.1889    -0.6679    -0.0129 O.3     
  11 C11           -3.6726    -0.7756     0.0315 C.2     
  12 N12           -3.7781    -2.0596     0.0252 N.2     
  13 N13           -5.0922    -2.5229     0.0343 N.am    
  14 C14           -6.0038    -1.3678     0.0490 C.3     
  15 C15           -5.0514    -0.1556     0.0539 C.3     
  16 C16           -5.4671    -3.8174     0.0297 C.2     
  17 O17           -6.6449    -4.1079     0.0382 O.2     
  18 C18           -4.4231    -4.9042     0.0139 C.3     
  19 O19           -5.0600    -6.1782     0.1290 O.3     
  20 C20           -3.6534    -4.8425    -1.2802 C.ar    
  21 C21           -2.3668    -4.3321    -1.2973 C.ar    
  22 C22           -1.6605    -4.2759    -2.4870 C.ar    
  23 C23           -2.2396    -4.7292    -3.6571 C.ar    
  24 C24           -3.5243    -5.2386    -3.6414 C.ar    
  25 C25           -4.2302    -5.3015    -2.4518 C.ar    
  26 F26           -5.4858    -5.8000    -2.4366 F       
  27 F27           -1.8007    -3.8885    -0.1536 F       
  28 C28           -5.2256    -6.6255     1.4761 C.3     
  29 H29           -1.1721    -1.7915     0.0025 H       
  30 H30           -3.3538     1.9033     0.0439 H       
  31 H31           -1.2355     3.1496     0.0369 H       
  32 H32            0.5323     3.8335     0.9076 H       
  33 H33            2.0621     3.9377     0.0035 H       
  34 H34            0.5153     3.8431    -0.8723 H       
  35 H35            0.6146    -2.4437     0.8731 H       
  36 H36            0.5976    -2.4342    -0.9068 H       
  37 H37            2.1464    -2.4986    -0.0319 H       
  38 H38           -6.6318    -1.3634    -0.8419 H       
  39 H39           -6.6158    -1.3736     0.9510 H       
  40 H40           -5.1947     0.4395     0.9558 H       
  41 H41           -5.2046     0.4545    -0.8362 H       
  42 H42           -3.7390    -4.7630     0.8506 H       
  43 H43           -0.6568    -3.8773    -2.5005 H       
  44 H44           -1.6880    -4.6850    -4.5846 H       
  45 H45           -3.9761    -5.5919    -4.5565 H       
  46 H46           -5.7160    -7.5990     1.4779 H       
  47 H47           -4.2494    -6.7096     1.9536 H       
  48 H48           -5.8377    -5.9093     2.0241 H       
@<TRIPOS>BOND
   1    1    2 ar
   2    1    7 1
   3    1    6 ar
   4    2    3 ar
   5    2   10 1
   6    3    4 ar
   7    3   29 1
   8    4    5 ar
   9    4   11 1
  10    5    6 ar
  11    5   30 1
  12    6   31 1
  13    7    8 1
  14    8   32 1
  15    8   33 1
  16    8   34 1
  17    9   10 1
  18    9   35 1
  19    9   36 1
  20    9   37 1
  21   11   12 2
  22   11   15 1
  23   12   13 1
  24   13   14 1
  25   13   16 am
  26   14   15 1
  27   14   38 1
  28   14   39 1
  29   15   40 1
  30   15   41 1
  31   16   17 2
  32   16   18 1
  33   18   19 1
  34   18   20 1
  35   18   42 1
  36   19   28 1
  37   20   21 ar
  38   20   25 ar
  39   21   22 ar
  40   21   27 1
  41   22   23 ar
  42   22   43 1
  43   23   24 ar
  44   23   44 1
  45   24   25 ar
  46   24   45 1
  47   25   26 1
  48   28   46 1
  49   28   47 1
  50   28   48 1

#	End of record

