#	Name: ASD03330659
#	Creating user name:	WinNT
#	Creation time:	15. 06. 2019 20:37

#	Modifying user name:	WinNT
#	Modification time:	15. 06. 2019 20:37

#	Program:	/corina/corina34_cracker 3.40 0067  02.08.2006

@<TRIPOS>MOLECULE
ASD03330659
  70   73    0    0    0
SMALL
NO_CHARGES


@<TRIPOS>ATOM
   1 C1             0.3422     1.7219     1.5240 C.2     
   2 N2             0.3687     0.4252     1.9305 N.pl3   
   3 C3             1.5608     1.9965     0.9799 C.2     
   4 N4             2.3045     0.8715     1.0435 N.2     
   5 C5             1.5955    -0.0803     1.6077 C.2     
   6 C6             2.0480    -1.4606     1.8507 C.2     
   7 C7             1.9903     3.2907     0.4209 C.2     
   8 O8             1.2255     4.2364     0.4195 O.2     
   9 C9             3.6575     4.7129    -0.6444 C.3     
  10 N10            3.2306     3.4264    -0.0887 N.am    
  11 C11            3.2060     4.8135    -2.1028 C.3     
  12 C12            1.6850     4.6654    -2.1772 C.3     
  13 C13            3.6142     6.1745    -2.6703 C.3     
  14 C14            3.8673     3.7014    -2.9193 C.3     
  15 C15            5.1593     4.8164    -0.5752 C.2     
  16 N16            5.7622     6.0068    -0.7649 N.am    
  17 O17            5.8255     3.8286    -0.3488 O.2     
  18 C18            7.2246     6.0944    -0.7724 C.3     
  19 C19           -0.7272    -0.2769     2.6041 C.3     
  20 C20           -2.0349    -0.0032     1.8546 C.3     
  21 C21           -2.6770     1.2737     2.3874 C.3     
  22 N22           -1.6596     2.2472     2.7886 N.3     
  23 C23           -0.8323     2.6580     1.6444 C.3     
  24 C24           -2.2734     3.4123     3.4396 C.3     
  25 C25            2.0075    -1.9159     3.0825 C.2     
  26 C26            2.4457    -3.2964     3.4775 C.3     
  27 C27            2.5352    -4.1930     2.2429 C.3     
  28 C28            3.3371    -3.4690     1.1565 C.3     
  29 C29            2.5218    -2.2647     0.6755 C.3     
  30 O30            3.1826    -5.4250     2.5803 O.3     
  31 C31            2.2559    -6.4895     2.2826 C.3     
  32 C32            1.2886    -5.8376     1.2630 C.3     
  33 O33            1.2152    -4.4773     1.7544 O.3     
  34 H34            3.2105     5.5236    -0.0689 H       
  35 H35            3.8405     2.6722    -0.0876 H       
  36 H36            1.2139     5.4578    -1.5955 H       
  37 H37            1.3634     4.7371    -3.2162 H       
  38 H38            1.3942     3.6959    -1.7729 H       
  39 H39            4.6821     6.3278    -2.5142 H       
  40 H40            3.3953     6.2035    -3.7377 H       
  41 H41            3.0562     6.9617    -2.1634 H       
  42 H42            3.5764     2.7318    -2.5150 H       
  43 H43            3.5456     3.7730    -3.9583 H       
  44 H44            4.9509     3.8069    -2.8663 H       
  45 H45            5.2279     6.8056    -0.8965 H       
  46 H46            7.6140     5.7518     0.1864 H       
  47 H47            7.6220     5.4677    -1.5708 H       
  48 H48            7.5258     7.1287    -0.9382 H       
  49 H49           -0.5263    -1.3482     2.6069 H       
  50 H50           -0.8134     0.0813     3.6299 H       
  51 H51           -1.8258     0.1127     0.7912 H       
  52 H52           -2.7179    -0.8402     1.9998 H       
  53 H53           -3.3031     1.7107     1.6095 H       
  54 H54           -3.2977     1.0292     3.2494 H       
  55 H55           -0.4731     3.6752     1.8009 H       
  56 H56           -1.4265     2.6166     0.7316 H       
  57 H57           -2.8164     3.0882     4.3275 H       
  58 H58           -1.4955     4.1195     3.7274 H       
  59 H59           -2.9639     3.8936     2.7470 H       
  60 H60            1.6378    -1.2587     3.8558 H       
  61 H61            3.4235    -3.2420     3.9563 H       
  62 H62            1.7252    -3.7176     4.1785 H       
  63 H63            4.2882    -3.1307     1.5676 H       
  64 H64            3.5161    -4.1459     0.3211 H       
  65 H65            1.6643    -2.6152     0.1012 H       
  66 H66            3.1463    -1.6359     0.0410 H       
  67 H67            2.7741    -7.3371     1.8343 H       
  68 H68            1.7196    -6.7957     3.1808 H       
  69 H69            1.7053    -5.8668     0.2562 H       
  70 H70            0.3099    -6.3165     1.2925 H       
@<TRIPOS>BOND
   1    1    2 1
   2    1    3 2
   3    1   23 1
   4    2   19 1
   5    2    5 1
   6    3    4 1
   7    3    7 1
   8    4    5 2
   9    5    6 1
  10    6   25 2
  11    6   29 1
  12    7    8 2
  13    7   10 am
  14    9   10 1
  15    9   11 1
  16    9   15 1
  17    9   34 1
  18   10   35 1
  19   11   12 1
  20   11   13 1
  21   11   14 1
  22   12   36 1
  23   12   37 1
  24   12   38 1
  25   13   39 1
  26   13   40 1
  27   13   41 1
  28   14   42 1
  29   14   43 1
  30   14   44 1
  31   15   16 am
  32   15   17 2
  33   16   18 1
  34   16   45 1
  35   18   46 1
  36   18   47 1
  37   18   48 1
  38   19   20 1
  39   19   49 1
  40   19   50 1
  41   20   21 1
  42   20   51 1
  43   20   52 1
  44   21   22 1
  45   21   53 1
  46   21   54 1
  47   22   23 1
  48   22   24 1
  49   23   55 1
  50   23   56 1
  51   24   57 1
  52   24   58 1
  53   24   59 1
  54   25   26 1
  55   25   60 1
  56   26   27 1
  57   26   61 1
  58   26   62 1
  59   27   28 1
  60   27   30 1
  61   27   33 1
  62   28   29 1
  63   28   63 1
  64   28   64 1
  65   29   65 1
  66   29   66 1
  67   30   31 1
  68   31   32 1
  69   31   67 1
  70   31   68 1
  71   32   33 1
  72   32   69 1
  73   32   70 1

#	End of record

