#	Name: ASD01948198
#	Creating user name:	WinNT
#	Creation time:	15. 06. 2019 20:13

#	Modifying user name:	WinNT
#	Modification time:	15. 06. 2019 20:13

#	Program:	/corina/corina34_cracker 3.40 0067  02.08.2006

@<TRIPOS>MOLECULE
ASD01948198
  49   51    0    0    0
SMALL
NO_CHARGES


@<TRIPOS>ATOM
   1 C1            -1.3802     0.8247    -2.8796 C.ar    
   2 C2            -1.2580    -0.5522    -2.8914 C.ar    
   3 C3            -0.2416    -1.1620    -2.1800 C.ar    
   4 C4             0.6528    -0.3948    -1.4573 C.ar    
   5 C5             0.5311     0.9821    -1.4462 C.ar    
   6 C6            -0.4861     1.5918    -2.1565 C.ar    
   7 C7            -0.1089    -2.6631    -2.1920 C.3     
   8 O8             0.7359    -3.0579    -3.2748 O.3     
   9 C9             0.9286    -4.4702    -3.3765 C.3     
  10 C10            1.8443    -4.7759    -4.5635 C.3     
  11 C11            3.1494    -3.9912    -4.4161 C.3     
  12 C12            3.7299    -4.2246    -3.0199 C.3     
  13 O13            1.1938    -4.3947    -5.7774 O.3     
  14 C14            1.6364    -5.1197    -6.9265 C.3     
  15 C15            0.9769    -4.5581    -8.1596 C.ar    
  16 C16            1.5293    -3.4658    -8.8022 C.ar    
  17 C17           -0.1772    -5.1386    -8.6515 C.ar    
  18 C18           -0.7821    -4.6234    -9.7826 C.ar    
  19 C19           -0.2332    -3.5274   -10.4217 C.ar    
  20 C20            0.9243    -2.9506    -9.9333 C.ar    
  21 C21            4.8749    -3.3150    -2.5697 C.3     
  22 C22            3.4808    -3.1476    -1.9621 C.3     
  23 S23            3.7647    -5.9515    -2.4657 S.o2    
  24 O24            2.4619    -6.3834    -2.0975 O.2     
  25 O25            4.5803    -6.7350    -3.3260 O.2     
  26 Cl26           4.7840    -5.9011    -0.7225 Cl      
  27 H27           -2.1716     1.3013    -3.4390 H       
  28 H28           -1.9568    -1.1516    -3.4560 H       
  29 H29            1.4465    -0.8712    -0.9009 H       
  30 H30            1.2297     1.5815    -0.8813 H       
  31 H31           -0.5810     2.6676    -2.1482 H       
  32 H32            0.3272    -2.9968    -1.2505 H       
  33 H33           -1.0935    -3.1138    -2.3163 H       
  34 H34            1.3862    -4.8415    -2.4595 H       
  35 H35           -0.0345    -4.9585    -3.5254 H       
  36 H36            2.0630    -5.8434    -4.5882 H       
  37 H37            3.8632    -4.3288    -5.1675 H       
  38 H38            2.9519    -2.9282    -4.5544 H       
  39 H39            2.7186    -5.0279    -7.0194 H       
  40 H40            1.3689    -6.1708    -6.8182 H       
  41 H41            2.4332    -3.0148    -8.4203 H       
  42 H42           -0.6060    -5.9948    -8.1522 H       
  43 H43           -1.6834    -5.0773   -10.1673 H       
  44 H44           -0.7056    -3.1251   -11.3056 H       
  45 H45            1.3532    -2.0943   -10.4326 H       
  46 H46            5.6489    -3.7542    -1.9403 H       
  47 H47            5.2146    -2.5504    -3.2682 H       
  48 H48            2.9033    -2.2728    -2.2608 H       
  49 H49            3.3375    -3.4767    -0.9328 H       
@<TRIPOS>BOND
   1    1    2 ar
   2    1    6 ar
   3    1   27 1
   4    2    3 ar
   5    2   28 1
   6    3    4 ar
   7    3    7 1
   8    4    5 ar
   9    4   29 1
  10    5    6 ar
  11    5   30 1
  12    6   31 1
  13    7    8 1
  14    7   32 1
  15    7   33 1
  16    8    9 1
  17    9   10 1
  18    9   34 1
  19    9   35 1
  20   10   11 1
  21   10   13 1
  22   10   36 1
  23   11   12 1
  24   11   37 1
  25   11   38 1
  26   12   21 1
  27   12   23 1
  28   12   22 1
  29   13   14 1
  30   14   15 1
  31   14   39 1
  32   14   40 1
  33   15   16 ar
  34   15   17 ar
  35   16   20 ar
  36   16   41 1
  37   17   18 ar
  38   17   42 1
  39   18   19 ar
  40   18   43 1
  41   19   20 ar
  42   19   44 1
  43   20   45 1
  44   21   22 1
  45   21   46 1
  46   21   47 1
  47   22   48 1
  48   22   49 1
  49   23   24 2
  50   23   25 2
  51   23   26 1

#	End of record

