#	Name: ASD04590008
#	Creating user name:	WinNT
#	Creation time:	15. 06. 2019 20:50

#	Modifying user name:	WinNT
#	Modification time:	15. 06. 2019 20:50

#	Program:	/corina/corina34_cracker 3.40 0067  02.08.2006

@<TRIPOS>MOLECULE
ASD04590008
  57   60    0    0    0
SMALL
NO_CHARGES


@<TRIPOS>ATOM
   1 C1            -2.3017     1.4265     1.1782 C.ar    
   2 C2            -2.3673     0.0137     1.2953 C.ar    
   3 C3            -1.5606    -0.7833     0.4679 C.ar    
   4 C4            -0.7296    -0.1892    -0.4324 C.ar    
   5 C5            -0.6661     1.1984    -0.5466 C.ar    
   6 C6            -1.4302     2.0034     0.2432 C.ar    
   7 C7            -3.1200     2.2026     2.0194 C.ar    
   8 C8            -3.9355     1.5668     2.9053 C.ar    
   9 N9            -3.9772     0.2443     2.9941 N.ar    
  10 C10           -3.2429    -0.5418     2.2422 C.ar    
  11 S11           -1.3341     3.7553     0.0820 S.o2    
  12 N12           -0.7434     4.3475     1.5112 N.am    
  13 O13           -0.3408     4.0140    -0.9007 O.2     
  14 O14           -2.6720     4.2226    -0.0235 O.2     
  15 C15            0.6084     3.9907     1.9490 C.3     
  16 C16            1.0504     4.9399     3.0646 C.3     
  17 N17            2.4058     4.5821     3.5036 N.3     
  18 C18            2.8644     5.4745     4.5766 C.3     
  19 C19            4.2552     5.0776     4.9999 C.2     
  20 C20            5.2414     5.9822     4.9896 C.2     
  21 C21            4.9656     7.3750     4.5617 C.ar    
  22 C22            4.1103     8.1808     5.3113 C.ar    
  23 C23            3.8573     9.4762     4.9082 C.ar    
  24 C24            4.4507     9.9753     3.7626 C.ar    
  25 C25            5.3001     9.1800     3.0145 C.ar    
  26 C26            5.5653     7.8851     3.4114 C.ar    
  27 C27            6.6100     5.5917     5.4062 C.ar    
  28 C28            7.3306     4.6622     4.6580 C.ar    
  29 C29            8.6039     4.3026     5.0505 C.ar    
  30 C30            9.1652     4.8626     6.1840 C.ar    
  31 C31            8.4546     5.7852     6.9306 C.ar    
  32 C32            7.1830     6.1570     6.5442 C.ar    
  33 H33           -1.5986    -1.8599     0.5451 H       
  34 H34           -0.1092    -0.8033    -1.0683 H       
  35 H35            0.0022     1.6424    -1.2695 H       
  36 H36           -3.1014     3.2810     1.9638 H       
  37 H37           -4.5660     2.1563     3.5544 H       
  38 H38           -3.3123    -1.6141     2.3513 H       
  39 H39           -1.2923     4.9305     2.0585 H       
  40 H40            0.6112     2.9662     2.3212 H       
  41 H41            1.2965     4.0734     1.1077 H       
  42 H42            1.0476     5.9644     2.6923 H       
  43 H43            0.3623     4.8571     3.9059 H       
  44 H44            2.4491     3.6165     3.7930 H       
  45 H45            2.8742     6.5026     4.2148 H       
  46 H46            2.1889     5.3954     5.4284 H       
  47 H47            4.4560     4.0633     5.3116 H       
  48 H48            3.6461     7.7921     6.2056 H       
  49 H49            3.1944    10.1014     5.4880 H       
  50 H50            4.2498    10.9896     3.4509 H       
  51 H51            5.7601     9.5747     2.1206 H       
  52 H52            6.2324     7.2667     2.8292 H       
  53 H53            6.8932     4.2241     3.7731 H       
  54 H54            9.1630     3.5823     4.4717 H       
  55 H55           10.1619     4.5782     6.4873 H       
  56 H56            8.8975     6.2187     7.8151 H       
  57 H57            6.6309     6.8810     7.1252 H       
@<TRIPOS>BOND
   1    1    2 ar
   2    1    7 ar
   3    1    6 ar
   4    2    3 ar
   5    2   10 ar
   6    3    4 ar
   7    3   33 1
   8    4    5 ar
   9    4   34 1
  10    5    6 ar
  11    5   35 1
  12    6   11 1
  13    7    8 ar
  14    7   36 1
  15    8    9 ar
  16    8   37 1
  17    9   10 ar
  18   10   38 1
  19   11   12 am
  20   11   13 2
  21   11   14 2
  22   12   15 1
  23   12   39 1
  24   15   16 1
  25   15   40 1
  26   15   41 1
  27   16   17 1
  28   16   42 1
  29   16   43 1
  30   17   18 1
  31   17   44 1
  32   18   19 1
  33   18   45 1
  34   18   46 1
  35   19   20 2
  36   19   47 1
  37   20   21 1
  38   20   27 1
  39   21   22 ar
  40   21   26 ar
  41   22   23 ar
  42   22   48 1
  43   23   24 ar
  44   23   49 1
  45   24   25 ar
  46   24   50 1
  47   25   26 ar
  48   25   51 1
  49   26   52 1
  50   27   28 ar
  51   27   32 ar
  52   28   29 ar
  53   28   53 1
  54   29   30 ar
  55   29   54 1
  56   30   31 ar
  57   30   55 1
  58   31   32 ar
  59   31   56 1
  60   32   57 1

#	End of record

