#	Name: ASD09740542
#	Creating user name:	WinNT
#	Creation time:	15. 06. 2019 21:23

#	Modifying user name:	WinNT
#	Modification time:	15. 06. 2019 21:23

#	Program:	/corina/corina34_cracker 3.40 0067  02.08.2006

@<TRIPOS>MOLECULE
ASD09740542
  66   70    0    0    0
SMALL
NO_CHARGES


@<TRIPOS>ATOM
   1 N1             0.6059     1.0659     0.5321 N.2     
   2 C2             0.5620    -0.2339     0.3779 C.2     
   3 C3             1.7846     1.6162     0.6179 C.2     
   4 S4             3.0193     0.3662     0.4923 S.3     
   5 C5             1.7601    -0.8559     0.3257 C.2     
   6 C6             2.0439     3.0604     0.7922 C.ar    
   7 C7             0.9788     3.9537     0.8785 C.ar    
   8 C8             3.3582     3.5295     0.8764 C.ar    
   9 C9             3.6058     4.8755     1.0394 C.ar    
  10 C10            2.5527     5.7750     1.1218 C.ar    
  11 C11            1.2294     5.3150     1.0434 C.ar    
  12 O12            2.8022     7.0986     1.2831 O.3     
  13 C13            4.1650     7.4831     1.4756 C.3     
  14 C14            4.8471     7.6422     0.1154 C.3     
  15 C15            4.2179     8.8125     2.2312 C.3     
  16 C16            0.1404     6.2411     1.1276 C.1     
  17 N17           -0.7234     6.9758     1.1944 N.1     
  18 C18            1.9773    -2.3081     0.1582 C.ar    
  19 C19            2.8653    -2.7753    -0.8151 C.ar    
  20 C20            3.0635    -4.1323    -0.9665 C.ar    
  21 C21            2.3827    -5.0257    -0.1541 C.ar    
  22 C22            1.5031    -4.5687     0.8097 C.ar    
  23 C23            1.3006    -3.2144     0.9750 C.ar    
  24 C24            3.7159    -2.0179    -1.8119 C.3     
  25 C25            4.7768    -3.0321    -2.2898 C.3     
  26 C26            4.0618    -4.3832    -2.0768 C.3     
  27 N27            3.3684    -4.7900    -3.3015 N.am    
  28 C28            3.1172    -6.0939    -3.5322 C.2     
  29 N29            2.3919    -6.4605    -4.6074 N.am    
  30 O30            3.5449    -6.9395    -2.7704 O.2     
  31 C31            1.9668    -5.4631    -5.5990 C.3     
  32 C32            2.4177    -5.9256    -6.9881 C.3     
  33 C33            1.8867    -7.3371    -7.2487 C.3     
  34 C34            2.4622    -8.3007    -6.2084 C.3     
  35 C35            2.0165    -7.8659    -4.8134 C.3     
  36 O36            1.9901    -9.6236    -6.4710 O.3     
  37 H37           -0.3704    -0.7730     0.2981 H       
  38 H38           -0.0374     3.5932     0.8175 H       
  39 H39            4.1825     2.8345     0.8137 H       
  40 H40            4.6235     5.2313     1.1037 H       
  41 H41            4.6808     6.7161     2.0533 H       
  42 H42            5.8865     7.9355     0.2622 H       
  43 H43            4.8093     6.6951    -0.4229 H       
  44 H44            4.3313     8.4092    -0.4623 H       
  45 H45            3.7320     8.6992     3.2003 H       
  46 H46            5.2574     9.1058     2.3781 H       
  47 H47            3.7021     9.5795     1.6536 H       
  48 H48            2.5404    -6.0872    -0.2753 H       
  49 H49            0.9772    -5.2730     1.4373 H       
  50 H50            0.6138    -2.8571     1.7280 H       
  51 H51            3.1069    -1.6835    -2.6518 H       
  52 H52            4.1965    -1.1668    -1.3294 H       
  53 H53            5.0118    -2.8797    -3.3432 H       
  54 H54            5.6766    -2.9690    -1.6778 H       
  55 H55            4.7786    -5.1471    -1.7755 H       
  56 H56            3.0901    -4.1210    -3.9463 H       
  57 H57            0.8811    -5.3687    -5.5800 H       
  58 H58            2.4235    -4.5007    -5.3682 H       
  59 H59            2.0260    -5.2443    -7.7433 H       
  60 H60            3.5068    -5.9325    -7.0335 H       
  61 H61            0.7989    -7.3344    -7.1788 H       
  62 H62            2.1854    -7.6590    -8.2463 H       
  63 H63            3.5508    -8.2852    -6.2611 H       
  64 H64            2.5036    -8.4892    -4.0634 H       
  65 H65            0.9345    -7.9659    -4.7278 H       
  66 H66            2.3159   -10.2882    -5.8487 H       
@<TRIPOS>BOND
   1    1    2 1
   2    1    3 2
   3    2    5 2
   4    2   37 1
   5    3    4 1
   6    3    6 1
   7    4    5 1
   8    5   18 1
   9    6    7 ar
  10    6    8 ar
  11    7   11 ar
  12    7   38 1
  13    8    9 ar
  14    8   39 1
  15    9   10 ar
  16    9   40 1
  17   10   11 ar
  18   10   12 1
  19   11   16 1
  20   12   13 1
  21   13   14 1
  22   13   15 1
  23   13   41 1
  24   14   42 1
  25   14   43 1
  26   14   44 1
  27   15   45 1
  28   15   46 1
  29   15   47 1
  30   16   17 3
  31   18   19 ar
  32   18   23 ar
  33   19   20 ar
  34   19   24 1
  35   20   21 ar
  36   20   26 1
  37   21   22 ar
  38   21   48 1
  39   22   23 ar
  40   22   49 1
  41   23   50 1
  42   24   25 1
  43   24   51 1
  44   24   52 1
  45   25   26 1
  46   25   53 1
  47   25   54 1
  48   26   27 1
  49   26   55 1
  50   27   28 am
  51   27   56 1
  52   28   29 am
  53   28   30 2
  54   29   31 1
  55   29   35 1
  56   31   32 1
  57   31   57 1
  58   31   58 1
  59   32   33 1
  60   32   59 1
  61   32   60 1
  62   33   34 1
  63   33   61 1
  64   33   62 1
  65   34   35 1
  66   34   36 1
  67   34   63 1
  68   35   64 1
  69   35   65 1
  70   36   66 1

#	End of record

