#	Name: ASD01816179
#	Creating user name:	WinNT
#	Creation time:	15. 06. 2019 19:34

#	Modifying user name:	WinNT
#	Modification time:	15. 06. 2019 19:34

#	Program:	/corina/corina34_cracker 3.40 0067  02.08.2006

@<TRIPOS>MOLECULE
ASD01816179
  54   59    0    0    0
SMALL
NO_CHARGES


@<TRIPOS>ATOM
   1 C1            -0.0167     1.3813     0.0096 C.ar    
   2 C2             0.0021    -0.0041     0.0020 C.ar    
   3 C3             1.1984    -0.6909    -0.0131 C.ar    
   4 C4             2.4015     0.0059    -0.0203 C.ar    
   5 C5             2.3790     1.4106    -0.0126 C.ar    
   6 C6             1.1663     2.0916     0.0022 C.ar    
   7 N7             3.6053    -0.6772    -0.0345 N.pl3   
   8 C8             4.7970    -0.0586    -0.0420 C.2     
   9 C9             4.9000     1.3103    -0.0361 C.2     
  10 C10            3.6670     2.1301    -0.0205 C.2     
  11 C11            5.9971     2.2729    -0.0415 C.2     
  12 N12            5.4246     3.4960    -0.0304 N.am    
  13 N13            4.0323     3.3799    -0.0179 N.2     
  14 C14            6.1265     4.7082    -0.0309 C.ar    
  15 C15            5.8873     5.6525     0.9617 C.ar    
  16 C16            7.0667     4.9675    -1.0190 C.ar    
  17 C17            7.7574     6.1637    -1.0169 C.ar    
  18 C18            7.5143     7.1036    -0.0320 C.ar    
  19 C19            6.5827     6.8481     0.9573 C.ar    
  20 F20            4.9771     5.4027     1.9283 F       
  21 O21            7.1914     2.0229    -0.0529 O.2     
  22 C22            3.5779    -2.1419    -0.0411 C.3     
  23 C23            3.5555    -2.6375    -1.4641 C.ar    
  24 C24            4.7409    -2.8863    -2.1254 C.ar    
  25 C25            4.7187    -3.3451    -3.4412 C.ar    
  26 C26            3.4985    -3.5499    -4.0816 C.ar    
  27 C27            2.3189    -3.2978    -3.4105 C.ar    
  28 C28            2.3467    -2.8477    -2.1031 C.ar    
  29 C29            5.9901    -3.6139    -4.1576 C.ar    
  30 C30            5.9679    -4.0725    -5.4731 C.ar    
  31 C31            7.1535    -4.3210    -6.1347 C.ar    
  32 C32            8.3621    -4.1159    -5.4940 C.ar    
  33 C33            8.3899    -3.6607    -4.1882 C.ar    
  34 C34            7.2105    -3.4031    -3.5191 C.ar    
  35 H35           -0.9602     1.9068     0.0169 H       
  36 H36           -0.9289    -0.5516     0.0083 H       
  37 H37            1.2004    -1.7709    -0.0189 H       
  38 H38            1.1506     3.1715     0.0084 H       
  39 H39            5.6983    -0.6536    -0.0527 H       
  40 H40            7.2583     4.2342    -1.7884 H       
  41 H41            8.4887     6.3652    -1.7856 H       
  42 H42            8.0566     8.0375    -0.0330 H       
  43 H43            6.3950     7.5844     1.7248 H       
  44 H44            4.4656    -2.5242     0.4629 H       
  45 H45            2.6860    -2.4910     0.4793 H       
  46 H46            5.6840    -2.7255    -1.6244 H       
  47 H47            3.4756    -3.9049    -5.1013 H       
  48 H48            1.3724    -3.4559    -3.9061 H       
  49 H49            1.4214    -2.6520    -1.5817 H       
  50 H50            5.0248    -4.2336    -5.9741 H       
  51 H51            7.1374    -4.6765    -7.1544 H       
  52 H52            9.2874    -4.3123    -6.0152 H       
  53 H53            9.3364    -3.5023    -3.6927 H       
  54 H54            7.2334    -3.0478    -2.4995 H       
@<TRIPOS>BOND
   1    1    2 ar
   2    1    6 ar
   3    1   35 1
   4    2    3 ar
   5    2   36 1
   6    3    4 ar
   7    3   37 1
   8    4    5 ar
   9    4    7 1
  10    5    6 ar
  11    5   10 1
  12    6   38 1
  13    7    8 1
  14    7   22 1
  15    8    9 2
  16    8   39 1
  17    9   10 1
  18    9   11 1
  19   10   13 2
  20   11   12 am
  21   11   21 2
  22   12   13 1
  23   12   14 1
  24   14   15 ar
  25   14   16 ar
  26   15   20 1
  27   15   19 ar
  28   16   17 ar
  29   16   40 1
  30   17   18 ar
  31   17   41 1
  32   18   19 ar
  33   18   42 1
  34   19   43 1
  35   22   23 1
  36   22   44 1
  37   22   45 1
  38   23   24 ar
  39   23   28 ar
  40   24   25 ar
  41   24   46 1
  42   25   26 ar
  43   25   29 1
  44   26   27 ar
  45   26   47 1
  46   27   28 ar
  47   27   48 1
  48   28   49 1
  49   29   30 ar
  50   29   34 ar
  51   30   31 ar
  52   30   50 1
  53   31   32 ar
  54   31   51 1
  55   32   33 ar
  56   32   52 1
  57   33   34 ar
  58   33   53 1
  59   34   54 1

#	End of record

