#	Name: ASD02270008
#	Creating user name:	WinNT
#	Creation time:	15. 06. 2019 20:20

#	Modifying user name:	WinNT
#	Modification time:	15. 06. 2019 20:20

#	Program:	/corina/corina34_cracker 3.40 0067  02.08.2006

@<TRIPOS>MOLECULE
ASD02270008
  57   60    0    0    0
SMALL
NO_CHARGES


@<TRIPOS>ATOM
   1 N1            -0.6180     1.5218    -0.7895 N.am    
   2 C2            -0.4501     0.1079    -0.4300 C.3     
   3 N3             0.9142    -0.0154     0.1345 N.3     
   4 C4             1.6448     1.0944    -0.5119 C.3     
   5 C5             0.5909     2.1186    -0.8537 C.2     
   6 O6             0.7951     3.2798    -1.1380 O.2     
   7 C7             2.6671     1.6845     0.4558 C.3     
   8 C8             3.4422     2.8029    -0.2466 C.3     
   9 N9             4.1036     2.2638    -1.4418 N.3     
  10 C10            3.1238     1.7529    -2.4090 C.3     
  11 C11            2.3379     0.5997    -1.7786 C.3     
  12 C12            4.9773     3.2704    -2.0593 C.3     
  13 C13            6.2588     3.4080    -1.2349 C.3     
  14 N14            6.9340     2.1099    -1.1616 N.am    
  15 C15            7.7665     1.8403    -0.1365 C.2     
  16 C16            8.4473     0.5314    -0.0626 C.ar    
  17 C17            9.3103     0.2496     0.9984 C.ar    
  18 C18            9.9438    -0.9753     1.0622 C.ar    
  19 C19            9.7234    -1.9249     0.0737 C.ar    
  20 C20            8.8674    -1.6484    -0.9809 C.ar    
  21 C21            8.2256    -0.4304    -1.0505 C.ar    
  22 F22           10.3456    -3.1223     0.1396 F       
  23 O23            7.9571     2.6743     0.7272 O.2     
  24 C24            1.4827    -1.2479    -0.1949 C.ar    
  25 C25            2.3039    -1.9010     0.7155 C.ar    
  26 C26            2.8648    -3.1201     0.3880 C.ar    
  27 C27            2.6107    -3.6914    -0.8448 C.ar    
  28 C28            1.7923    -3.0436    -1.7558 C.ar    
  29 C29            1.2234    -1.8256    -1.4311 C.ar    
  30 F30            1.5458    -3.6045    -2.9599 F       
  31 F31           10.7796    -1.2502     2.0875 F       
  32 C32            7.1856     4.4281    -1.8993 C.3     
  33 H33           -1.4673     1.9588    -0.9589 H       
  34 H34           -1.1916    -0.1800     0.3153 H       
  35 H35           -0.5468    -0.5184    -1.3170 H       
  36 H36            2.1519     2.0902     1.3265 H       
  37 H37            3.3601     0.9052     0.7728 H       
  38 H38            2.7525     3.5948    -0.5389 H       
  39 H39            4.1926     3.2071     0.4328 H       
  40 H40            2.4365     2.5521    -2.6865 H       
  41 H41            3.6433     1.3954    -3.2980 H       
  42 H42            3.0211    -0.2112    -1.5265 H       
  43 H43            1.5903     0.2398    -2.4854 H       
  44 H44            5.2291     2.9601    -3.0733 H       
  45 H45            4.4607     4.2297    -2.0906 H       
  46 H46            6.0093     3.7451    -0.2288 H       
  47 H47            6.7819     1.4445    -1.8508 H       
  48 H48            9.4820     0.9885     1.7672 H       
  49 H49            8.6993    -2.3906    -1.7472 H       
  50 H50            7.5590    -0.2168    -1.8730 H       
  51 H51            2.5039    -1.4556     1.6788 H       
  52 H52            3.5032    -3.6276     1.0961 H       
  53 H53            3.0512    -4.6443    -1.0983 H       
  54 H54            0.5855    -1.3202    -2.1410 H       
  55 H55            6.6832     5.3939    -1.9539 H       
  56 H56            8.0986     4.5261    -1.3120 H       
  57 H57            7.4351     4.0910    -2.9054 H       
@<TRIPOS>BOND
   1    1    2 1
   2    1    5 am
   3    1   33 1
   4    2    3 1
   5    2   34 1
   6    2   35 1
   7    3    4 1
   8    3   24 1
   9    4    5 1
  10    4    7 1
  11    4   11 1
  12    5    6 2
  13    7    8 1
  14    7   36 1
  15    7   37 1
  16    8    9 1
  17    8   38 1
  18    8   39 1
  19    9   10 1
  20    9   12 1
  21   10   11 1
  22   10   40 1
  23   10   41 1
  24   11   42 1
  25   11   43 1
  26   12   13 1
  27   12   44 1
  28   12   45 1
  29   13   14 1
  30   13   32 1
  31   13   46 1
  32   14   15 am
  33   14   47 1
  34   15   16 1
  35   15   23 2
  36   16   17 ar
  37   16   21 ar
  38   17   18 ar
  39   17   48 1
  40   18   19 ar
  41   18   31 1
  42   19   20 ar
  43   19   22 1
  44   20   21 ar
  45   20   49 1
  46   21   50 1
  47   24   25 ar
  48   24   29 ar
  49   25   26 ar
  50   25   51 1
  51   26   27 ar
  52   26   52 1
  53   27   28 ar
  54   27   53 1
  55   28   29 ar
  56   28   30 1
  57   29   54 1
  58   32   55 1
  59   32   56 1
  60   32   57 1

#	End of record

