#	Name: ASD05740239
#	Creating user name:	WinNT
#	Creation time:	15. 06. 2019 21:03

#	Modifying user name:	WinNT
#	Modification time:	15. 06. 2019 21:03

#	Program:	/corina/corina34_cracker 3.40 0067  02.08.2006

@<TRIPOS>MOLECULE
ASD05740239
  53   55    0    0    0
SMALL
NO_CHARGES


@<TRIPOS>ATOM
   1 C1            -0.0172     1.3909    -0.0563 C.ar    
   2 C2             0.0013    -0.0015    -0.0572 C.ar    
   3 N3             1.1111     2.0858    -0.0576 N.ar    
   4 C4             2.2888     1.4955    -0.0597 C.ar    
   5 C5             2.3873     0.1060    -0.0606 C.ar    
   6 C6             1.2147    -0.6594    -0.0594 C.ar    
   7 C7             3.7145    -0.5529    -0.0634 C.ar    
   8 C8             4.8844     0.2062     0.0398 C.ar    
   9 N9             3.8115    -1.8773    -0.1588 N.ar    
  10 C10            4.9964    -2.4678    -0.1615 C.ar    
  11 N11            6.1209    -1.7726    -0.0705 N.ar    
  12 C12            6.1000    -0.4527     0.0328 C.ar    
  13 N13            5.0624    -3.8477    -0.2616 N.pl3   
  14 C14            6.3045    -4.4820    -0.3848 C.ar    
  15 C15            6.5111    -5.7228     0.2027 C.ar    
  16 C16            7.7406    -6.3513     0.0817 C.ar    
  17 C17            8.7665    -5.7391    -0.6284 C.ar    
  18 C18            8.5588    -4.4973    -1.2166 C.ar    
  19 C19            7.3271    -3.8725    -1.0991 C.ar    
  20 O20            7.9431    -7.5663     0.6580 O.3     
  21 C21            6.8449    -8.1363     1.3729 C.3     
  22 O22            9.9749    -6.3557    -0.7474 O.3     
  23 C23           10.1537    -7.2213    -1.8703 C.3     
  24 O24            9.5621    -3.8975    -1.9117 O.3     
  25 C25            9.2783    -2.6218    -2.4897 C.3     
  26 N26           -1.2331     2.0595    -0.0600 N.pl3   
  27 C27           -2.4863     1.3008    -0.0647 C.3     
  28 C28           -3.6697     2.2706    -0.0681 C.3     
  29 N29           -4.9263     1.5097    -0.0728 N.3     
  30 H30           -0.9230    -0.5601    -0.0558 H       
  31 H31            3.1871     2.0951    -0.0610 H       
  32 H32            1.2586    -1.7385    -0.0597 H       
  33 H33            4.8395     1.2821     0.1227 H       
  34 H34            7.0228     0.1036     0.1064 H       
  35 H35            4.2481    -4.3746    -0.2464 H       
  36 H36            5.7138    -6.1984     0.7545 H       
  37 H37            7.1654    -2.9074    -1.5561 H       
  38 H38            6.5563    -7.4707     2.1864 H       
  39 H39            6.0010    -8.2701     0.6962 H       
  40 H40            7.1398    -9.1028     1.7815 H       
  41 H41           11.1571    -7.6464    -1.8451 H       
  42 H42            9.4178    -8.0243    -1.8309 H       
  43 H43           10.0228    -6.6533    -2.7914 H       
  44 H44            9.0063    -1.9186    -1.7025 H       
  45 H45           10.1611    -2.2562    -3.0143 H       
  46 H46            8.4512    -2.7175    -3.1931 H       
  47 H47           -1.2533     3.0293    -0.0594 H       
  48 H48           -2.5280     0.6736    -0.9552 H       
  49 H49           -2.5340     0.6725     0.8247 H       
  50 H50           -3.6280     2.8977     0.8225 H       
  51 H51           -3.6220     2.8989    -0.9575 H       
  52 H52           -4.9657     0.8719     0.7080 H       
  53 H53           -5.7235     2.1282    -0.0751 H       
@<TRIPOS>BOND
   1    1    2 ar
   2    1    3 ar
   3    1   26 1
   4    2    6 ar
   5    2   30 1
   6    3    4 ar
   7    4    5 ar
   8    4   31 1
   9    5    6 ar
  10    5    7 1
  11    6   32 1
  12    7    8 ar
  13    7    9 ar
  14    8   12 ar
  15    8   33 1
  16    9   10 ar
  17   10   11 ar
  18   10   13 1
  19   11   12 ar
  20   12   34 1
  21   13   14 1
  22   13   35 1
  23   14   15 ar
  24   14   19 ar
  25   15   16 ar
  26   15   36 1
  27   16   17 ar
  28   16   20 1
  29   17   18 ar
  30   17   22 1
  31   18   19 ar
  32   18   24 1
  33   19   37 1
  34   20   21 1
  35   21   38 1
  36   21   39 1
  37   21   40 1
  38   22   23 1
  39   23   41 1
  40   23   42 1
  41   23   43 1
  42   24   25 1
  43   25   44 1
  44   25   45 1
  45   25   46 1
  46   26   27 1
  47   26   47 1
  48   27   28 1
  49   27   48 1
  50   27   49 1
  51   28   29 1
  52   28   50 1
  53   28   51 1
  54   29   52 1
  55   29   53 1

#	End of record

