#	Name: ASD00170198
#	Creating user name:	WinNT
#	Creation time:	15. 06. 2019 18:31

#	Modifying user name:	WinNT
#	Modification time:	15. 06. 2019 18:31

#	Program:	/corina/corina34_cracker 3.40 0067  02.08.2006

@<TRIPOS>MOLECULE
ASD00170198
  40   42    0    0    0
SMALL
NO_CHARGES


@<TRIPOS>ATOM
   1 C1            -0.0135     1.3326    -0.1090 C.2     
   2 C2             0.0061    -0.0016    -0.1391 C.2     
   3 C3            -1.3201    -0.5792     0.0266 C.2     
   4 C4            -2.3065     0.3598     0.1709 C.2     
   5 S5            -1.6524     1.9295     0.1165 S.3     
   6 C6             1.2027     2.2255    -0.2430 C.3     
   7 C7             2.0544     1.7753    -1.4287 C.3     
   8 C8             3.0762     0.7468    -0.9519 C.3     
   9 C9             2.4802    -0.0905     0.1775 C.3     
  10 C10            1.2558    -0.8430    -0.3344 C.3     
  11 N11           -3.6459     0.0722     0.3412 N.pl3   
  12 C12           -1.5739    -2.0203     0.0379 C.2     
  13 C13           -1.8288    -2.7353    -1.2294 C.ar    
  14 O14           -1.5749    -2.6302     1.0921 O.2     
  15 C15           -1.9610    -4.1262    -1.2345 C.ar    
  16 C16           -2.1991    -4.7891    -2.4179 C.ar    
  17 C17           -2.3078    -4.0763    -3.6061 C.ar    
  18 C18           -2.1769    -2.6926    -3.6052 C.ar    
  19 C19           -1.9440    -2.0219    -2.4252 C.ar    
  20 O20           -2.5421    -4.7333    -4.7705 O.3     
  21 C21           -2.6425    -3.9394    -5.9545 C.3     
  22 H22            0.8801     3.2549    -0.3996 H       
  23 H23            1.7953     2.1689     0.6701 H       
  24 H24            1.4135     1.3268    -2.1878 H       
  25 H25            2.5736     2.6354    -1.8514 H       
  26 H26            3.3481     0.0946    -1.7818 H       
  27 H27            3.9665     1.2614    -0.5903 H       
  28 H28            3.2237    -0.8050     0.5309 H       
  29 H29            2.1870     0.5637     0.9985 H       
  30 H30            1.1510    -1.7787     0.2147 H       
  31 H31            1.3827    -1.0608    -1.3948 H       
  32 H32           -3.9555    -0.8455     0.2888 H       
  33 H33           -4.2776     0.7880     0.5133 H       
  34 H34           -1.8763    -4.6807    -0.3116 H       
  35 H35           -2.3011    -5.8642    -2.4227 H       
  36 H36           -2.2616    -2.1423    -4.5306 H       
  37 H37           -1.8423    -0.9467    -2.4253 H       
  38 H38           -3.4635    -3.2304    -5.8479 H       
  39 H39           -1.7103    -3.3956    -6.1074 H       
  40 H40           -2.8303    -4.5867    -6.8111 H       
@<TRIPOS>BOND
   1    1    2 2
   2    1    6 1
   3    1    5 1
   4    2    3 1
   5    2   10 1
   6    3    4 2
   7    3   12 1
   8    4    5 1
   9    4   11 1
  10    6    7 1
  11    6   22 1
  12    6   23 1
  13    7    8 1
  14    7   24 1
  15    7   25 1
  16    8    9 1
  17    8   26 1
  18    8   27 1
  19    9   10 1
  20    9   28 1
  21    9   29 1
  22   10   30 1
  23   10   31 1
  24   11   32 1
  25   11   33 1
  26   12   13 1
  27   12   14 2
  28   13   15 ar
  29   13   19 ar
  30   15   16 ar
  31   15   34 1
  32   16   17 ar
  33   16   35 1
  34   17   18 ar
  35   17   20 1
  36   18   19 ar
  37   18   36 1
  38   19   37 1
  39   20   21 1
  40   21   38 1
  41   21   39 1
  42   21   40 1

#	End of record

