#	Name: ASD01882407
#	Creating user name:	WinNT
#	Creation time:	15. 06. 2019 19:44

#	Modifying user name:	WinNT
#	Modification time:	15. 06. 2019 19:44

#	Program:	/corina/corina34_cracker 3.40 0067  02.08.2006

@<TRIPOS>MOLECULE
ASD01882407
  45   49    0    0    0
SMALL
NO_CHARGES


@<TRIPOS>ATOM
   1 N1            -0.0179     1.4664     0.0101 N.pl3   
   2 C2             0.0021    -0.0041     0.0020 C.3     
   3 C3             1.3732     0.0647     0.6886 C.3     
   4 C4             1.4523     1.4322    -0.0041 C.3     
   5 N5             1.3100     0.1347     2.1506 N.pl3   
   6 C6             2.3892    -0.3125     2.9193 C.ar    
   7 C7             2.3310    -0.2468     4.3077 C.ar    
   8 C8             3.4001    -0.6900     5.0638 C.ar    
   9 C9             4.5260    -1.1976     4.4406 C.ar    
  10 C10            4.5860    -1.2638     3.0612 C.ar    
  11 C11            3.5186    -0.8283     2.2991 C.ar    
  12 F12            1.2317     0.2497     4.9162 F       
  13 C13           -1.6497     4.7584     0.0353 C.2     
  14 C14           -0.6421     3.7781     0.0258 C.2     
  15 C15           -0.9979     2.4561     0.0204 C.2     
  16 C16           -2.3645     2.1025     0.0249 C.2     
  17 C17           -3.3138     3.0588     0.0344 C.2     
  18 N18           -2.9701     4.3794     0.0394 N.pl3   
  19 N19           -2.8377     6.5295     0.0519 N.2     
  20 N20           -1.6312     6.0827     0.0474 N.2     
  21 C21           -3.6896     5.5381     0.0484 C.2     
  22 C22           -5.1921     5.6541     0.0558 C.3     
  23 C23           -5.6940     5.6861     1.5008 C.3     
  24 C24           -7.1896     5.9192     1.7241 C.3     
  25 C25           -6.5871     4.5335     1.9641 C.3     
  26 Cl26           1.0319     4.2379     0.0199 Cl      
  27 H27           -0.7729    -0.4521     0.6240 H       
  28 H28            0.0392    -0.4322    -0.9997 H       
  29 H29            2.0944    -0.6651     0.3207 H       
  30 H30            1.8758     1.3866    -1.0075 H       
  31 H31            1.9105     2.2053     0.6126 H       
  32 H32            0.5197     0.4913     2.5854 H       
  33 H33            3.3564    -0.6397     6.1417 H       
  34 H34            5.3603    -1.5426     5.0333 H       
  35 H35            5.4668    -1.6607     2.5784 H       
  36 H36            3.5652    -0.8849     1.2216 H       
  37 H37           -2.6505     1.0611     0.0203 H       
  38 H38           -4.3565     2.7775     0.0378 H       
  39 H39           -5.4881     6.5719    -0.4521 H       
  40 H40           -5.6252     4.7973    -0.4603 H       
  41 H41           -5.0040     6.1126     2.2288 H       
  42 H42           -7.4835     6.4987     2.5993 H       
  43 H43           -7.8159     6.0497     0.8416 H       
  44 H44           -6.8170     3.7523     1.2395 H       
  45 H45           -6.4846     4.2013     2.9972 H       
@<TRIPOS>BOND
   1    1    2 1
   2    1    4 1
   3    1   15 1
   4    2    3 1
   5    2   27 1
   6    2   28 1
   7    3    4 1
   8    3    5 1
   9    3   29 1
  10    4   30 1
  11    4   31 1
  12    5    6 1
  13    5   32 1
  14    6    7 ar
  15    6   11 ar
  16    7    8 ar
  17    7   12 1
  18    8    9 ar
  19    8   33 1
  20    9   10 ar
  21    9   34 1
  22   10   11 ar
  23   10   35 1
  24   11   36 1
  25   13   14 1
  26   13   18 1
  27   13   20 2
  28   14   15 2
  29   14   26 1
  30   15   16 1
  31   16   17 2
  32   16   37 1
  33   17   18 1
  34   17   38 1
  35   18   21 1
  36   19   20 1
  37   19   21 2
  38   21   22 1
  39   22   23 1
  40   22   39 1
  41   22   40 1
  42   23   24 1
  43   23   25 1
  44   23   41 1
  45   24   25 1
  46   24   42 1
  47   24   43 1
  48   25   44 1
  49   25   45 1

#	End of record

