#	Name: ASD01410428
#	Creating user name:	WinNT
#	Creation time:	15. 06. 2019 19:17

#	Modifying user name:	WinNT
#	Modification time:	15. 06. 2019 19:17

#	Program:	/corina/corina34_cracker 3.40 0067  02.08.2006

@<TRIPOS>MOLECULE
ASD01410428
  48   51    0    0    0
SMALL
NO_CHARGES


@<TRIPOS>ATOM
   1 C1            -0.7251     3.2568    -2.7663 C.ar    
   2 C2            -1.0485     2.4606    -3.8666 C.ar    
   3 C3            -2.2323     1.7522    -3.8806 C.ar    
   4 C4            -3.1013     1.8281    -2.8077 C.ar    
   5 C5            -2.7884     2.6171    -1.7090 C.ar    
   6 C6            -1.5998     3.3280    -1.6822 C.ar    
   7 C7            -1.2583     4.1850    -0.4906 C.3     
   8 O8            -3.6461     2.6880    -0.6574 O.3     
   9 C9            -4.8400     2.0468    -0.7632 C.ar    
  10 C10           -4.8969     0.6624    -0.6270 C.ar    
  11 C11           -6.0986    -0.0051    -0.7317 C.ar    
  12 C12           -7.2642     0.7083    -0.9748 C.ar    
  13 C13           -7.2101     2.1076    -1.1125 C.ar    
  14 C14           -5.9927     2.7738    -1.0001 C.ar    
  15 F15           -2.2719     4.0765     0.4676 F       
  16 F16           -0.0469     3.7549     0.0613 F       
  17 F17           -1.1392     5.5191    -0.8944 F       
  18 N18           -8.4921     0.0846    -1.0884 N.pl3   
  19 C19           -9.6030     0.8033    -1.3245 C.2     
  20 N20           -9.6044     2.1005    -1.4601 N.2     
  21 C21           -8.4723     2.8238    -1.3704 C.2     
  22 O22           -8.4905     4.0358    -1.4991 O.2     
  23 C23           -8.5837    -1.3711    -0.9507 C.3     
  24 C24           -8.9642    -1.7188     0.4653 C.ar    
  25 C25          -10.2945    -1.7051     0.8478 C.ar    
  26 C26          -10.6441    -2.0245     2.1487 C.ar    
  27 C27           -9.6633    -2.3581     3.0669 C.ar    
  28 C28           -8.3330    -2.3727     2.6842 C.ar    
  29 C29           -7.9838    -2.0575     1.3822 C.ar    
  30 F30           -6.6856    -2.0718     1.0087 F       
  31 F31          -10.0043    -2.6689     4.3367 F       
  32 F32          -11.2517    -1.3795    -0.0483 F       
  33 C33            0.5429     4.0169    -2.7477 C.2     
  34 N34            1.4209     3.8880    -3.7621 N.am    
  35 O35            0.7936     4.7582    -1.8175 O.2     
  36 H36           -0.3724     2.3996    -4.7066 H       
  37 H37           -2.4813     1.1367    -4.7324 H       
  38 H38           -4.0269     1.2718    -2.8245 H       
  39 H39           -3.9908     0.1061    -0.4378 H       
  40 H40           -6.1328    -1.0793    -0.6252 H       
  41 H41           -5.9476     3.8477    -1.1052 H       
  42 H42          -10.5437     0.2792    -1.4067 H       
  43 H43           -9.3410    -1.7538    -1.6349 H       
  44 H44           -7.6192    -1.8198    -1.1885 H       
  45 H45          -11.6819    -2.0131     2.4473 H       
  46 H46           -7.5678    -2.6326     3.4006 H       
  47 H47            1.2209     3.2965    -4.5044 H       
  48 H48            2.2528     4.3867    -3.7499 H       
@<TRIPOS>BOND
   1    1    2 ar
   2    1   33 1
   3    1    6 ar
   4    2    3 ar
   5    2   36 1
   6    3    4 ar
   7    3   37 1
   8    4    5 ar
   9    4   38 1
  10    5    6 ar
  11    5    8 1
  12    6    7 1
  13    7   15 1
  14    7   16 1
  15    7   17 1
  16    8    9 1
  17    9   10 ar
  18    9   14 ar
  19   10   11 ar
  20   10   39 1
  21   11   12 ar
  22   11   40 1
  23   12   13 ar
  24   12   18 1
  25   13   14 ar
  26   13   21 1
  27   14   41 1
  28   18   19 1
  29   18   23 1
  30   19   20 2
  31   19   42 1
  32   20   21 1
  33   21   22 2
  34   23   24 1
  35   23   43 1
  36   23   44 1
  37   24   25 ar
  38   24   29 ar
  39   25   26 ar
  40   25   32 1
  41   26   27 ar
  42   26   45 1
  43   27   28 ar
  44   27   31 1
  45   28   29 ar
  46   28   46 1
  47   29   30 1
  48   33   34 am
  49   33   35 2
  50   34   47 1
  51   34   48 1

#	End of record

