#	Name: ASD01948261
#	Creating user name:	WinNT
#	Creation time:	15. 06. 2019 20:14

#	Modifying user name:	WinNT
#	Modification time:	15. 06. 2019 20:14

#	Program:	/corina/corina34_cracker 3.40 0067  02.08.2006

@<TRIPOS>MOLECULE
ASD01948261
  45   48    0    0    0
SMALL
NO_CHARGES


@<TRIPOS>ATOM
   1 C1            -0.6689     3.5798     2.2064 C.ar    
   2 C2            -1.5325     3.6649     1.1284 C.ar    
   3 C3            -1.0490     3.9940    -0.1247 C.ar    
   4 C4             0.2988     4.2393    -0.3053 C.ar    
   5 C5             1.1692     4.1552     0.7730 C.ar    
   6 C6             0.6806     3.8238     2.0331 C.ar    
   7 C7             3.0307     2.0360     0.5049 C.ar    
   8 C8             3.4559     3.3503     0.6888 C.ar    
   9 N9             2.5335     4.4028     0.5933 N.pl3   
  10 C10            3.9294     0.9934     0.5966 C.ar    
  11 C11            5.2747     1.2558     0.8756 C.ar    
  12 C12            5.7034     2.5776     1.0612 C.ar    
  13 C13            4.7903     3.6225     0.9669 C.ar    
  14 N14            5.2149     4.9475     1.1516 N.am    
  15 I15           -3.5769     3.2936     1.3953 I       
  16 F16            3.5109    -0.2786     0.4177 F       
  17 F17            1.5237     3.7412     3.0855 F       
  18 F18            1.7305     1.7812     0.2408 F       
  19 O19            7.0311     2.5132     1.3106 O.3     
  20 C20            7.3999     1.2224     1.2802 C.2     
  21 N21            6.3746     0.4673     1.0250 N.2     
  22 S22            6.7221     5.2561     1.7645 S.o2    
  23 O23            6.6810     6.6314     2.1198 O.2     
  24 O24            6.9124     4.2502     2.7499 O.2     
  25 C25            7.8431     4.9941     0.3626 C.3     
  26 C26            9.3254     5.3080     0.5751 C.3     
  27 C27            8.8582     3.8547     0.4732 C.3     
  28 C28            7.2510     5.2818    -1.0185 C.3     
  29 C29            6.1647     4.2812    -1.3178 C.2     
  30 C30            4.9698     4.6945    -1.6608 C.2     
  31 H31           -1.0503     3.3269     3.1847 H       
  32 H32           -1.7259     4.0591    -0.9637 H       
  33 H33            0.6750     4.4958    -1.2846 H       
  34 H34            2.8421     5.3024     0.4026 H       
  35 H35            4.6256     5.6824     0.9203 H       
  36 H36            8.4052     0.8635     1.4444 H       
  37 H37            9.8789     5.7191    -0.2691 H       
  38 H38            9.6270     5.6720     1.5573 H       
  39 H39            8.8524     3.2625     1.3882 H       
  40 H40            9.1043     3.3097    -0.4382 H       
  41 H41            6.8320     6.2880    -1.0318 H       
  42 H42            8.0341     5.2045    -1.7728 H       
  43 H43            6.3712     3.2233    -1.2495 H       
  44 H44            4.1913     3.9774    -1.8752 H       
  45 H45            4.7633     5.7524    -1.7291 H       
@<TRIPOS>BOND
   1    1    2 ar
   2    1    6 ar
   3    1   31 1
   4    2    3 ar
   5    2   15 1
   6    3    4 ar
   7    3   32 1
   8    4    5 ar
   9    4   33 1
  10    5    6 ar
  11    5    9 1
  12    6   17 1
  13    7    8 ar
  14    7   10 ar
  15    7   18 1
  16    8    9 1
  17    8   13 ar
  18    9   34 1
  19   10   11 ar
  20   10   16 1
  21   11   12 ar
  22   11   21 1
  23   12   13 ar
  24   12   19 1
  25   13   14 1
  26   14   22 am
  27   14   35 1
  28   19   20 1
  29   20   21 2
  30   20   36 1
  31   22   23 2
  32   22   24 2
  33   22   25 1
  34   25   26 1
  35   25   28 1
  36   25   27 1
  37   26   27 1
  38   26   37 1
  39   26   38 1
  40   27   39 1
  41   27   40 1
  42   28   29 1
  43   28   41 1
  44   28   42 1
  45   29   30 2
  46   29   43 1
  47   30   44 1
  48   30   45 1

#	End of record

