#	Name: ASD01840491
#	Creating user name:	WinNT
#	Creation time:	15. 06. 2019 19:37

#	Modifying user name:	WinNT
#	Modification time:	15. 06. 2019 19:37

#	Program:	/corina/corina34_cracker 3.40 0067  02.08.2006

@<TRIPOS>MOLECULE
ASD01840491
  43   46    0    0    0
SMALL
NO_CHARGES


@<TRIPOS>ATOM
   1 C1             0.5280     1.4605    -0.0188 C.3     
   2 C2             0.2741    -0.0249    -0.0124 C.ar    
   3 C3             0.0344    -0.6890    -1.2018 C.ar    
   4 C4            -0.1998    -2.0540    -1.2045 C.ar    
   5 Cl5           -0.4991    -2.8787    -2.7025 Cl      
   6 C6            -0.1954    -2.7600    -0.0181 C.ar    
   7 C7             0.0459    -2.0948     1.1850 C.ar    
   8 C8             0.2868    -0.7201     1.1795 C.ar    
   9 C9             0.0517    -2.8443     2.4594 C.2     
  10 O10            0.1323    -2.2473     3.5152 O.2     
  11 N11           -0.0322    -4.1894     2.4505 N.am    
  12 C12           -0.2393    -5.0453     1.2770 C.3     
  13 C13           -0.2642    -6.4744     1.7516 C.ar    
  14 N14           -0.4201    -7.6221     1.1054 N.ar    
  15 C15           -0.4056    -8.7705     1.7521 C.ar    
  16 C16           -0.5866   -10.0494     0.9758 C.3     
  17 N17           -0.2370    -8.8331     3.0572 N.ar    
  18 C18           -0.0742    -7.7240     3.7741 C.ar    
  19 N19            0.1025    -7.7904     5.1466 N.3     
  20 C20            1.5346    -7.7564     5.4973 C.3     
  21 C21            1.2458    -8.8375     6.5483 C.3     
  22 C22            0.0782    -9.1885     5.6155 C.3     
  23 C23           -0.0853    -6.4928     3.1179 C.ar    
  24 C24            0.0722    -5.0803     3.6118 C.3     
  25 H25            1.5961     1.6461    -0.1318 H       
  26 H26           -0.0100     1.9175    -0.8494 H       
  27 H27            0.1815     1.8925     0.9201 H       
  28 H28            0.0296    -0.1407    -2.1322 H       
  29 H29           -0.3785    -3.8244    -0.0209 H       
  30 H30            0.4784    -0.2007     2.1067 H       
  31 H31           -1.1882    -4.7972     0.8015 H       
  32 H32            0.5775    -4.9053     0.5689 H       
  33 H33            0.3867   -10.4204     0.6546 H       
  34 H34           -1.0682   -10.7941     1.6095 H       
  35 H35           -1.2093    -9.8588     0.1017 H       
  36 H36            2.1869    -8.0962     4.6928 H       
  37 H37            1.8540    -6.8071     5.9273 H       
  38 H38            2.0114    -9.6105     6.6154 H       
  39 H39            0.9399    -8.4462     7.5185 H       
  40 H40           -0.8368    -9.4528     6.1457 H       
  41 H41            0.3418    -9.9104     4.8426 H       
  42 H42            1.0466    -4.9584     4.0848 H       
  43 H43           -0.7181    -4.8504     4.3264 H       
@<TRIPOS>BOND
   1    1    2 1
   2    1   25 1
   3    1   26 1
   4    1   27 1
   5    2    8 ar
   6    2    3 ar
   7    3    4 ar
   8    3   28 1
   9    4    5 1
  10    4    6 ar
  11    6    7 ar
  12    6   29 1
  13    7    8 ar
  14    7    9 1
  15    8   30 1
  16    9   10 2
  17    9   11 am
  18   11   24 1
  19   11   12 1
  20   12   13 1
  21   12   31 1
  22   12   32 1
  23   13   23 ar
  24   13   14 ar
  25   14   15 ar
  26   15   16 1
  27   15   17 ar
  28   16   33 1
  29   16   34 1
  30   16   35 1
  31   17   18 ar
  32   18   19 1
  33   18   23 ar
  34   19   22 1
  35   19   20 1
  36   20   21 1
  37   20   36 1
  38   20   37 1
  39   21   22 1
  40   21   38 1
  41   21   39 1
  42   22   40 1
  43   22   41 1
  44   23   24 1
  45   24   42 1
  46   24   43 1

#	End of record

