#	Name: ASD01914212
#	Creating user name:	WinNT
#	Creation time:	15. 06. 2019 20:03

#	Modifying user name:	WinNT
#	Modification time:	15. 06. 2019 20:03

#	Program:	/corina/corina34_cracker 3.40 0067  02.08.2006

@<TRIPOS>MOLECULE
ASD01914212
  32   34    0    0    0
SMALL
NO_CHARGES


@<TRIPOS>ATOM
   1 O1            -0.0161     1.3381     0.0094 O.3     
   2 C2             0.0021    -0.0041     0.0020 C.2     
   3 N3             1.2264    -0.4381    -0.0120 N.2     
   4 C4             2.0701     0.6294    -0.0143 C.ar    
   5 C5             1.2618     1.7767    -0.0004 C.ar    
   6 C6             1.8478     3.0330     0.0003 C.ar    
   7 C7             3.2223     3.1501    -0.0126 C.ar    
   8 C8             4.0244     2.0189    -0.0268 C.ar    
   9 C9             3.4591     0.7631    -0.0276 C.ar    
  10 C10           -1.2228    -0.8820     0.0098 C.3     
  11 C11           -1.6226    -1.1868     1.4548 C.3     
  12 C12           -2.8190    -2.0444     1.4624 C.1     
  13 C13           -3.7732    -2.7283     1.4684 C.1     
  14 C14           -6.5907    -4.7562     2.1946 C.2     
  15 N15           -5.5737    -4.0326     2.5694 N.2     
  16 C16           -4.9371    -3.5625     1.4758 C.2     
  17 C17           -5.6015    -4.0243     0.3814 C.2     
  18 N18           -6.6438    -4.7768     0.8445 N.pl3   
  19 C19           -7.5496    -5.4620     3.1184 C.3     
  20 H20            1.2295     3.9185     0.0106 H       
  21 H21            3.6769     4.1298    -0.0120 H       
  22 H22            5.0993     2.1235    -0.0375 H       
  23 H23            4.0881    -0.1147    -0.0379 H       
  24 H24           -2.0417    -0.3676    -0.4930 H       
  25 H25           -1.0049    -1.8143    -0.5113 H       
  26 H26           -0.8037    -1.7013     1.9576 H       
  27 H27           -1.8405    -0.2546     1.9759 H       
  28 H28           -5.3530    -3.8334    -0.6521 H       
  29 H29           -7.3013    -5.2411     0.3031 H       
  30 H30           -8.3805    -4.7977     3.3562 H       
  31 H31           -7.9300    -6.3594     2.6306 H       
  32 H32           -7.0319    -5.7393     4.0367 H       
@<TRIPOS>BOND
   1    1    2 1
   2    1    5 1
   3    2    3 2
   4    2   10 1
   5    3    4 1
   6    4    5 ar
   7    4    9 ar
   8    5    6 ar
   9    6    7 ar
  10    6   20 1
  11    7    8 ar
  12    7   21 1
  13    8    9 ar
  14    8   22 1
  15    9   23 1
  16   10   11 1
  17   10   24 1
  18   10   25 1
  19   11   12 1
  20   11   26 1
  21   11   27 1
  22   12   13 3
  23   13   16 1
  24   14   15 2
  25   14   18 1
  26   14   19 1
  27   15   16 1
  28   16   17 2
  29   17   18 1
  30   17   28 1
  31   18   29 1
  32   19   30 1
  33   19   31 1
  34   19   32 1

#	End of record

