#	Name: ASD03090367
#	Creating user name:	WinNT
#	Creation time:	15. 06. 2019 20:28

#	Modifying user name:	WinNT
#	Modification time:	15. 06. 2019 20:28

#	Program:	/corina/corina34_cracker 3.40 0067  02.08.2006

@<TRIPOS>MOLECULE
ASD03090367
  37   39    0    0    0
SMALL
NO_CHARGES


@<TRIPOS>ATOM
   1 C1            -0.0179     1.4706     0.0101 C.2     
   2 C2             0.0021    -0.0041     0.0020 C.ar    
   3 C3             1.2216    -0.6880    -0.0133 C.ar    
   4 C4             1.2372    -2.0588    -0.0203 C.ar    
   5 C5             0.0396    -2.7703    -0.0122 C.ar    
   6 C6            -1.1768    -2.0917     0.0030 C.ar    
   7 C7            -1.1984    -0.7210     0.0155 C.ar    
   8 O8             1.0268     2.0929     0.0035 O.2     
   9 N9            -1.1941     2.1285     0.0193 N.am    
  10 S10            0.0635    -4.5322    -0.0219 S.3     
  11 C11           -1.6982    -4.9642    -0.0067 C.3     
  12 F12           -2.2968    -4.4409     1.1444 F       
  13 F13           -2.3195    -4.4287    -1.1400 F       
  14 C14           -5.2600     4.9633     0.0286 C.ar    
  15 C15           -4.5993     4.7346     1.2493 C.ar    
  16 C16           -3.2816     4.2883     1.2379 C.ar    
  17 C17           -2.6415     4.0763     0.0367 C.ar    
  18 C18           -3.2980     4.3035    -1.1653 C.ar    
  19 C19           -4.5935     4.7371    -1.1773 C.ar    
  20 C20           -6.6080     5.4186     0.3771 C.2     
  21 C21           -6.6814     5.4380     1.7174 C.2     
  22 N22           -5.4906     5.0325     2.2556 N.pl3   
  23 C23           -1.2140     3.5934     0.0273 C.3     
  24 H24            2.1504    -0.1369    -0.0199 H       
  25 H25            2.1788    -2.5876    -0.0325 H       
  26 H26           -2.1037    -2.6459     0.0089 H       
  27 H27           -2.1417    -0.1954     0.0315 H       
  28 H28           -2.0275     1.6321     0.0205 H       
  29 H29           -1.8064    -6.0488    -0.0114 H       
  30 H30           -2.7622     4.1090     2.1677 H       
  31 H31           -2.7817     4.1324    -2.0983 H       
  32 H32           -5.0979     4.9118    -2.1162 H       
  33 H33           -7.3937     5.6878    -0.3132 H       
  34 H34           -7.5514     5.7305     2.2865 H       
  35 H35           -5.3023     4.9649     3.2048 H       
  36 H36           -0.7009     3.9588     0.9169 H       
  37 H37           -0.7094     3.9685    -0.8630 H       
@<TRIPOS>BOND
   1    1    2 1
   2    1    8 2
   3    1    9 am
   4    2    3 ar
   5    2    7 ar
   6    3    4 ar
   7    3   24 1
   8    4    5 ar
   9    4   25 1
  10    5    6 ar
  11    5   10 1
  12    6    7 ar
  13    6   26 1
  14    7   27 1
  15    9   23 1
  16    9   28 1
  17   10   11 1
  18   11   12 1
  19   11   13 1
  20   11   29 1
  21   14   15 ar
  22   14   20 1
  23   14   19 ar
  24   15   16 ar
  25   15   22 1
  26   16   17 ar
  27   16   30 1
  28   17   18 ar
  29   17   23 1
  30   18   19 ar
  31   18   31 1
  32   19   32 1
  33   20   21 2
  34   20   33 1
  35   21   22 1
  36   21   34 1
  37   22   35 1
  38   23   36 1
  39   23   37 1

#	End of record

