#	Name: ASD08170313
#	Creating user name:	WinNT
#	Creation time:	15. 06. 2019 21:17

#	Modifying user name:	WinNT
#	Modification time:	15. 06. 2019 21:17

#	Program:	/corina/corina34_cracker 3.40 0067  02.08.2006

@<TRIPOS>MOLECULE
ASD08170313
  83   86    0    0    0
SMALL
NO_CHARGES


@<TRIPOS>ATOM
   1 C1            -0.0162     1.3436     0.0094 C.2     
   2 N2             0.0021    -0.0041     0.0020 N.am    
   3 C3             1.2158    -0.6830    -0.0132 C.2     
   4 S4             1.4076    -2.3853    -0.0242 S.3     
   5 C5             3.1581    -2.1679    -0.0397 C.2     
   6 C6             4.1900    -3.2660    -0.0555 C.3     
   7 C7             7.1341    -6.3828     3.2824 C.3     
   8 C8             7.3803    -6.6377     4.7471 C.2     
   9 S9             8.5882    -5.8382     5.7537 S.3     
  10 C10            8.0647    -6.7728     7.0905 C.2     
  11 N11            2.3916    -0.1314    -0.0271 N.2     
  12 N12            3.3971    -0.8949    -0.0352 N.2     
  13 N13            6.7391    -7.4792     5.4944 N.2     
  14 N14            7.0991    -7.5501     6.7024 N.2     
  15 O15            1.0258     1.9642     0.0028 O.2     
  16 C16           -1.3314     2.0792     0.0197 C.3     
  17 C17            4.5530    -3.6454     1.3816 C.3     
  18 C18            6.0914    -5.2741     3.1258 C.3     
  19 N19            8.5872    -6.7101     8.3778 N.am    
  20 C20            8.0869    -7.5012     9.3475 C.2     
  21 O21            7.1809    -8.2678     9.0975 O.2     
  22 C22            8.6531    -7.4332    10.7424 C.3     
  23 S23            5.7952    -4.9672     1.3627 S.3     
  24 N24            7.9449    -8.3833    11.6038 N.am    
  25 C25            8.4799    -6.0170    11.2947 C.3     
  26 O26            7.1031    -5.6416    11.2197 O.3     
  27 C27           -2.1345     1.7055    -1.2278 C.3     
  28 O28           -1.3487     1.9595    -2.3940 O.3     
  29 N29           -1.0833     3.5231     0.0263 N.am    
  30 C30           -2.0093     4.3636     0.5286 C.2     
  31 O31           -3.0501     3.9240     0.9759 O.2     
  32 O32           -1.7813     5.6905     0.5347 O.3     
  33 C33           -2.8226     6.5358     1.0910 C.3     
  34 C34           -2.3936     7.9784     1.0134 C.ar    
  35 C35           -2.7006     8.7316    -0.1044 C.ar    
  36 C36           -1.6980     8.5500     2.0623 C.ar    
  37 C37           -1.3045     9.8732     1.9911 C.ar    
  38 C38           -1.6061    10.6247     0.8708 C.ar    
  39 C39           -2.3070    10.0548    -0.1756 C.ar    
  40 C40            8.5494    -8.8769    12.7026 C.2     
  41 O41            9.6819    -8.5339    12.9788 O.2     
  42 O42            7.8985    -9.7501    13.4942 O.3     
  43 C43            8.6111   -10.2403    14.6605 C.3     
  44 C44            7.7314   -11.1996    15.4200 C.ar    
  45 C45            7.7612   -12.5490    15.1215 C.ar    
  46 C46            6.9542   -13.4290    15.8182 C.ar    
  47 C47            6.1179   -12.9596    16.8138 C.ar    
  48 C48            6.0888   -11.6103    17.1129 C.ar    
  49 C49            6.8989   -10.7310    16.4191 C.ar    
  50 H50           -0.8313    -0.5005     0.0073 H       
  51 H51            3.7854    -4.1375    -0.5701 H       
  52 H52            5.0824    -2.9185    -0.5760 H       
  53 H53            8.0650    -6.0760     2.8055 H       
  54 H54            6.7680    -7.2950     2.8113 H       
  55 H55           -1.8951     1.8033     0.9108 H       
  56 H56            4.9576    -2.7739     1.8963 H       
  57 H57            3.6606    -3.9929     1.9021 H       
  58 H58            5.1605    -5.5808     3.6027 H       
  59 H59            6.4576    -4.3618     3.5969 H       
  60 H60            9.3118    -6.0970     8.5778 H       
  61 H61            9.7131    -7.6862    10.7170 H       
  62 H62            7.0408    -8.6572    11.3833 H       
  63 H63            8.8079    -5.9896    12.3338 H       
  64 H64            9.0786    -5.3217    10.7063 H       
  65 H65            6.9190    -4.7529    11.5537 H       
  66 H66           -2.3954     0.6479    -1.1887 H       
  67 H67           -3.0452     2.3032    -1.2662 H       
  68 H68           -1.7960     1.7450    -3.2241 H       
  69 H69           -0.2525     3.8740    -0.3307 H       
  70 H70           -3.7431     6.3995     0.5234 H       
  71 H71           -2.9941     6.2633     2.1324 H       
  72 H72           -3.2476     8.2861    -0.9221 H       
  73 H73           -1.4623     7.9629     2.9376 H       
  74 H74           -0.7616    10.3200     2.8109 H       
  75 H75           -1.2990    11.6586     0.8153 H       
  76 H76           -2.5428    10.6419    -1.0509 H       
  77 H77            9.5187   -10.7534    14.3427 H       
  78 H78            8.8746    -9.4013    15.3045 H       
  79 H79            8.4146   -12.9157    14.3437 H       
  80 H80            6.9770   -14.4832    15.5845 H       
  81 H81            5.4869   -13.6470    17.3576 H       
  82 H82            5.4351   -11.2436    17.8904 H       
  83 H83            6.8762    -9.6768    16.6528 H       
@<TRIPOS>BOND
   1    1    2 am
   2    1   15 2
   3    1   16 1
   4    2    3 1
   5    2   50 1
   6    3    4 1
   7    3   11 2
   8    4    5 1
   9    5    6 1
  10    5   12 2
  11    6   17 1
  12    6   51 1
  13    6   52 1
  14    7    8 1
  15    7   18 1
  16    7   53 1
  17    7   54 1
  18    8    9 1
  19    8   13 2
  20    9   10 1
  21   10   19 1
  22   10   14 2
  23   11   12 1
  24   13   14 1
  25   16   27 1
  26   16   29 1
  27   16   55 1
  28   17   23 1
  29   17   56 1
  30   17   57 1
  31   18   23 1
  32   18   58 1
  33   18   59 1
  34   19   20 am
  35   19   60 1
  36   20   21 2
  37   20   22 1
  38   22   24 1
  39   22   25 1
  40   22   61 1
  41   24   40 am
  42   24   62 1
  43   25   26 1
  44   25   63 1
  45   25   64 1
  46   26   65 1
  47   27   28 1
  48   27   66 1
  49   27   67 1
  50   28   68 1
  51   29   30 am
  52   29   69 1
  53   30   31 2
  54   30   32 1
  55   32   33 1
  56   33   34 1
  57   33   70 1
  58   33   71 1
  59   34   35 ar
  60   34   36 ar
  61   35   39 ar
  62   35   72 1
  63   36   37 ar
  64   36   73 1
  65   37   38 ar
  66   37   74 1
  67   38   39 ar
  68   38   75 1
  69   39   76 1
  70   40   41 2
  71   40   42 1
  72   42   43 1
  73   43   44 1
  74   43   77 1
  75   43   78 1
  76   44   45 ar
  77   44   49 ar
  78   45   46 ar
  79   45   79 1
  80   46   47 ar
  81   46   80 1
  82   47   48 ar
  83   47   81 1
  84   48   49 ar
  85   48   82 1
  86   49   83 1

#	End of record

