#	Name: ASD01901060
#	Creating user name:	WinNT
#	Creation time:	15. 06. 2019 19:53

#	Modifying user name:	WinNT
#	Modification time:	15. 06. 2019 19:53

#	Program:	/corina/corina34_cracker 3.40 0067  02.08.2006

@<TRIPOS>MOLECULE
ASD01901060
  61   65    0    0    0
SMALL
NO_CHARGES


@<TRIPOS>ATOM
   1 C1             0.2011     0.7562    -0.1941 C.ar    
   2 C2             0.2649    -0.6021    -0.4255 C.ar    
   3 C3             1.4543    -1.1928    -0.8225 C.ar    
   4 C4             2.5956    -0.4318    -0.9873 C.ar    
   5 C5             2.5493     0.9329    -0.7569 C.ar    
   6 C6             1.3420     1.5368    -0.3632 C.ar    
   7 N7             3.6750     1.7371    -0.8944 N.pl3   
   8 C8             3.4964     3.1483    -1.2535 C.3     
   9 N9             2.3943     3.7313    -0.4872 N.am    
  10 C10            1.3258     2.9914    -0.1296 C.2     
  11 C11            2.4511     5.0810    -0.1181 C.ar    
  12 C12            1.7114     6.0245    -0.8188 C.ar    
  13 C13            1.7679     7.3552    -0.4543 C.ar    
  14 C14            2.5634     7.7495     0.6116 C.ar    
  15 C15            3.3027     6.8076     1.3121 C.ar    
  16 C16            3.2427     5.4757     0.9524 C.ar    
  17 O17            0.3569     3.5198     0.3813 O.2     
  18 O18            2.6189     9.0601     0.9697 O.3     
  19 C19            4.7874     3.9151    -0.9513 C.3     
  20 C20            3.1893     3.2552    -2.7500 C.3     
  21 C21            3.0694     4.7313    -3.1359 C.3     
  22 N22            4.3264     5.4239    -2.8252 N.3     
  23 C23            4.6211     5.3726    -1.3876 C.3     
  24 C24            4.2961     6.8113    -3.3071 C.3     
  25 C25            5.5579     7.5180    -2.8834 C.ar    
  26 C26            3.3697     9.3810     2.1424 C.3     
  27 C27            6.7385     7.2941    -3.5671 C.ar    
  28 C28            7.8957     7.9421    -3.1785 C.ar    
  29 C29            7.8727     8.8147    -2.1063 C.ar    
  30 C30            6.6922     9.0392    -1.4233 C.ar    
  31 C31            5.5337     8.3942    -1.8147 C.ar    
  32 C32            6.7636     6.3431    -4.7359 C.3     
  33 H33           -0.7289     1.2122     0.1119 H       
  34 H34           -0.6184    -1.2099    -0.2960 H       
  35 H35            1.4893    -2.2569    -1.0043 H       
  36 H36            3.5197    -0.8991    -1.2940 H       
  37 H37            4.5627     1.3717    -0.7550 H       
  38 H38            1.0923     5.7177    -1.6488 H       
  39 H39            1.1930     8.0891    -0.9993 H       
  40 H40            3.9218     7.1154     2.1418 H       
  41 H41            3.8148     4.7419     1.5006 H       
  42 H42            4.9919     3.8763     0.1186 H       
  43 H43            5.6154     3.4636    -1.4978 H       
  44 H44            3.9952     2.7940    -3.3208 H       
  45 H45            2.2507     2.7449    -2.9663 H       
  46 H46            2.8646     4.8120    -4.2035 H       
  47 H47            2.2545     5.1883    -2.5745 H       
  48 H48            3.8004     5.8265    -0.8322 H       
  49 H49            5.5421     5.9194    -1.1859 H       
  50 H50            4.2244     6.8167    -4.3947 H       
  51 H51            3.4326     7.3243    -2.8835 H       
  52 H52            3.3978    10.4630     2.2711 H       
  53 H53            2.8981     8.9237     3.0122 H       
  54 H54            4.3861     9.0010     2.0385 H       
  55 H55            8.8181     7.7667    -3.7122 H       
  56 H56            8.7771     9.3205    -1.8021 H       
  57 H57            6.6743     9.7205    -0.5855 H       
  58 H58            4.6105     8.5725    -1.2834 H       
  59 H59            6.5483     6.8898    -5.6539 H       
  60 H60            7.7493     5.8836    -4.8093 H       
  61 H61            6.0114     5.5679    -4.5898 H       
@<TRIPOS>BOND
   1    1    2 ar
   2    1    6 ar
   3    1   33 1
   4    2    3 ar
   5    2   34 1
   6    3    4 ar
   7    3   35 1
   8    4    5 ar
   9    4   36 1
  10    5    7 1
  11    5    6 ar
  12    6   10 1
  13    7    8 1
  14    7   37 1
  15    8    9 1
  16    8   20 1
  17    8   19 1
  18    9   10 am
  19    9   11 1
  20   10   17 2
  21   11   12 ar
  22   11   16 ar
  23   12   13 ar
  24   12   38 1
  25   13   14 ar
  26   13   39 1
  27   14   15 ar
  28   14   18 1
  29   15   16 ar
  30   15   40 1
  31   16   41 1
  32   18   26 1
  33   19   23 1
  34   19   42 1
  35   19   43 1
  36   20   21 1
  37   20   44 1
  38   20   45 1
  39   21   22 1
  40   21   46 1
  41   21   47 1
  42   22   23 1
  43   22   24 1
  44   23   48 1
  45   23   49 1
  46   24   25 1
  47   24   50 1
  48   24   51 1
  49   25   27 ar
  50   25   31 ar
  51   26   52 1
  52   26   53 1
  53   26   54 1
  54   27   28 ar
  55   27   32 1
  56   28   29 ar
  57   28   55 1
  58   29   30 ar
  59   29   56 1
  60   30   31 ar
  61   30   57 1
  62   31   58 1
  63   32   59 1
  64   32   60 1
  65   32   61 1

#	End of record

