#	Name: ASD09990004
#	Creating user name:	WinNT
#	Creation time:	15. 06. 2019 21:24

#	Modifying user name:	WinNT
#	Modification time:	15. 06. 2019 21:24

#	Program:	/corina/corina34_cracker 3.40 0067  02.08.2006

@<TRIPOS>MOLECULE
ASD09990004
  51   55    0    0    0
SMALL
NO_CHARGES


@<TRIPOS>ATOM
   1 C1            -0.0167     1.3774     0.0096 C.2     
   2 C2             0.0021    -0.0041     0.0020 C.2     
   3 C3             1.3058    -0.6874    -0.0141 C.2     
   4 C4             2.4718     0.1048    -0.0217 C.2     
   5 C5             2.3480     1.4505    -0.0139 C.2     
   6 N6             1.1376     2.0609     0.0023 N.pl3   
   7 C7            -0.2906    -2.1482    -0.0067 C.2     
   8 N8            -0.9176    -0.9830     0.0055 N.2     
   9 N9             1.0327    -1.9863    -0.0185 N.2     
  10 C10           -0.9722    -3.4648    -0.0068 C.ar    
  11 C11           -2.3668    -3.5322     0.0066 C.ar    
  12 C12           -2.9955    -4.7635     0.0059 C.ar    
  13 C13           -2.2453    -5.9252    -0.0075 C.ar    
  14 C14           -0.8634    -5.8631    -0.0204 C.ar    
  15 C15           -0.2238    -4.6401    -0.0261 C.ar    
  16 F16           -3.0998    -2.3975     0.0207 F       
  17 C17           -1.3309     2.1147     0.0199 C.3     
  18 C18           -1.7017     2.4608     1.4389 C.ar    
  19 C19           -1.9704     3.7775     1.7835 C.ar    
  20 C20           -2.3080     4.0513     3.1001 C.ar    
  21 C21           -2.3565     2.9823     3.9983 C.ar    
  22 N22           -2.0825     1.7550     3.5734 N.ar    
  23 N23           -1.7758     1.5104     2.3513 N.ar    
  24 C24           -2.7116     3.2176     5.4193 C.ar    
  25 C25           -2.7596     2.1502     6.3143 C.ar    
  26 C26           -3.0901     2.3750     7.6350 C.ar    
  27 C27           -3.3735     3.6569     8.0714 C.ar    
  28 C28           -3.3279     4.7197     7.1875 C.ar    
  29 C29           -2.9929     4.5073     5.8654 C.ar    
  30 C30           -3.7338     3.8960     9.5150 C.3     
  31 F31           -2.5712     4.1539    10.2492 F       
  32 F32           -4.5954     4.9946     9.6048 F       
  33 F33           -4.3693     2.7616    10.0311 F       
  34 C34           -2.4515     0.7532     5.8404 C.3     
  35 F35           -2.5647    -0.1385     6.9124 F       
  36 F36           -3.3555     0.3917     4.8357 F       
  37 F37           -1.1485     0.7096     5.3331 F       
  38 H38            3.4483    -0.3563    -0.0331 H       
  39 H39            3.2407     2.0583    -0.0197 H       
  40 H40            1.1048     3.0304     0.0078 H       
  41 H41           -4.0740    -4.8182     0.0163 H       
  42 H42           -2.7405    -6.8850    -0.0076 H       
  43 H43           -0.2836    -6.7742    -0.0301 H       
  44 H44            0.8551    -4.5941    -0.0407 H       
  45 H45           -1.2387     3.0298    -0.5651 H       
  46 H46           -2.1056     1.4826    -0.4142 H       
  47 H47           -1.9177     4.5663     1.0477 H       
  48 H48           -2.5263     5.0591     3.4212 H       
  49 H49           -3.1279     1.5486     8.3294 H       
  50 H50           -3.5505     5.7183     7.5335 H       
  51 H51           -2.9529     5.3386     5.1771 H       
@<TRIPOS>BOND
   1    1    2 2
   2    1    6 1
   3    1   17 1
   4    2    3 1
   5    2    8 1
   6    3    4 1
   7    3    9 2
   8    4    5 2
   9    4   38 1
  10    5    6 1
  11    5   39 1
  12    6   40 1
  13    7    8 2
  14    7    9 1
  15    7   10 1
  16   10   11 ar
  17   10   15 ar
  18   11   12 ar
  19   11   16 1
  20   12   13 ar
  21   12   41 1
  22   13   14 ar
  23   13   42 1
  24   14   15 ar
  25   14   43 1
  26   15   44 1
  27   17   18 1
  28   17   45 1
  29   17   46 1
  30   18   19 ar
  31   18   23 ar
  32   19   20 ar
  33   19   47 1
  34   20   21 ar
  35   20   48 1
  36   21   22 ar
  37   21   24 1
  38   22   23 ar
  39   24   25 ar
  40   24   29 ar
  41   25   26 ar
  42   25   34 1
  43   26   27 ar
  44   26   49 1
  45   27   28 ar
  46   27   30 1
  47   28   29 ar
  48   28   50 1
  49   29   51 1
  50   30   31 1
  51   30   32 1
  52   30   33 1
  53   34   35 1
  54   34   36 1
  55   34   37 1

#	End of record

