#	Name: ASD05430082
#	Creating user name:	WinNT
#	Creation time:	15. 06. 2019 20:59

#	Modifying user name:	WinNT
#	Modification time:	15. 06. 2019 20:59

#	Program:	/corina/corina34_cracker 3.40 0067  02.08.2006

@<TRIPOS>MOLECULE
ASD05430082
  70   75    0    0    0
SMALL
NO_CHARGES


@<TRIPOS>ATOM
   1 C1             0.0607     1.1735     0.4084 C.ar    
   2 C2             0.0201    -0.0136    -0.3219 C.ar    
   3 C3             1.1650    -0.4859    -0.9503 C.ar    
   4 C4             2.3468     0.2164    -0.8552 C.ar    
   5 C5             2.3952     1.4081    -0.1242 C.ar    
   6 C6             1.2425     1.8834     0.5084 C.ar    
   7 C7             4.8667    -0.0022     0.2137 C.3     
   8 C8             4.8285     1.5000     0.0665 C.2     
   9 C9             3.6566     2.1595    -0.0209 C.2     
  10 C10            6.2225    -0.4644     0.7480 C.3     
  11 C11            6.8328     0.5753     1.6924 C.3     
  12 N12            7.0777     1.8131     0.9522 N.pl3   
  13 C13            6.1093     2.2216     0.0219 C.2     
  14 C14            8.2643     2.6359     1.1732 C.3     
  15 C15            8.7586     3.1664    -0.1775 C.3     
  16 N16            7.6319     3.7292    -0.9252 N.pl3   
  17 N17            6.3569     3.1567    -0.8369 N.2     
  18 C18            7.9156     3.7933     2.0731 C.ar    
  19 C19            8.8019     4.1968     3.0542 C.ar    
  20 C20            8.4834     5.2584     3.8797 C.ar    
  21 C21            7.2760     5.9179     3.7239 C.ar    
  22 C22            6.3890     5.5128     2.7409 C.ar    
  23 C23            6.7120     4.4544     1.9131 C.ar    
  24 F24            6.9634     6.9555     4.5306 F       
  25 N25           -1.1796    -0.7326    -0.4218 N.pl3   
  26 C26           -1.7543    -1.2027    -1.5740 C.2     
  27 C27           -2.8899    -1.8317    -1.2151 C.2     
  28 N28           -3.0099    -1.7507     0.1182 N.2     
  29 C29           -1.9886    -1.0998     0.6055 C.2     
  30 C30           -3.8585    -2.5089    -2.1502 C.3     
  31 C31           -0.9493     2.8579     1.7489 C.3     
  32 O32           -1.0635     1.6356     1.0175 O.3     
  33 C33            6.0312    -1.7770     1.5173 C.3     
  34 O34            5.3903    -2.7339     0.6541 O.3     
  35 P35            6.0413    -3.0395    -0.8032 P.3     
  36 O36            6.5721    -1.6065    -1.3558 O.3     
  37 C37            7.1758    -0.6822    -0.4324 C.3     
  38 O38            7.1710    -3.9862    -0.6699 O.2     
  39 C39            4.7771    -3.7186    -1.9275 C.3     
  40 H40            1.1291    -1.4060    -1.5147 H       
  41 H41            3.2357    -0.1534    -1.3446 H       
  42 H42            1.2752     2.8032     1.0735 H       
  43 H43            4.0839    -0.3143     0.9050 H       
  44 H44            4.6892    -0.4620    -0.7585 H       
  45 H45            3.6429     3.2394    -0.0151 H       
  46 H46            6.1423     0.7721     2.5125 H       
  47 H47            7.7742     0.1971     2.0909 H       
  48 H48            9.0453     2.0332     1.6367 H       
  49 H49            9.5073     3.9410    -0.0113 H       
  50 H50            9.2015     2.3501    -0.7481 H       
  51 H51            7.7702     4.5074    -1.4874 H       
  52 H52            9.7436     3.6821     3.1758 H       
  53 H53            9.1759     5.5732     4.6464 H       
  54 H54            5.4469     6.0265     2.6184 H       
  55 H55            6.0203     4.1382     1.1462 H       
  56 H56           -1.3703    -1.0901    -2.5771 H       
  57 H57           -1.8194    -0.8828     1.6498 H       
  58 H58           -3.5725    -3.5532    -2.2757 H       
  59 H59           -4.8640    -2.4552    -1.7330 H       
  60 H60           -3.8395    -2.0081    -3.1181 H       
  61 H61           -0.2135     2.7382     2.5441 H       
  62 H62           -0.6315     3.6551     1.0769 H       
  63 H63           -1.9158     3.1129     2.1836 H       
  64 H64            7.0018    -2.1610     1.8311 H       
  65 H65            5.4066    -1.5993     2.3928 H       
  66 H66            7.3584     0.2681    -0.9341 H       
  67 H67            8.1183    -1.0921    -0.0694 H       
  68 H68            3.9679    -2.9975    -2.0424 H       
  69 H69            5.2261    -3.9191    -2.9003 H       
  70 H70            4.3816    -4.6455    -1.5120 H       
@<TRIPOS>BOND
   1    1    2 ar
   2    1    6 ar
   3    1   32 1
   4    2    3 ar
   5    2   25 1
   6    3    4 ar
   7    3   40 1
   8    4    5 ar
   9    4   41 1
  10    5    6 ar
  11    5    9 1
  12    6   42 1
  13    7    8 1
  14    7   10 1
  15    7   43 1
  16    7   44 1
  17    8    9 2
  18    8   13 1
  19    9   45 1
  20   10   11 1
  21   10   33 1
  22   10   37 1
  23   11   12 1
  24   11   46 1
  25   11   47 1
  26   12   13 1
  27   12   14 1
  28   13   17 2
  29   14   15 1
  30   14   18 1
  31   14   48 1
  32   15   16 1
  33   15   49 1
  34   15   50 1
  35   16   17 1
  36   16   51 1
  37   18   19 ar
  38   18   23 ar
  39   19   20 ar
  40   19   52 1
  41   20   21 ar
  42   20   53 1
  43   21   22 ar
  44   21   24 1
  45   22   23 ar
  46   22   54 1
  47   23   55 1
  48   25   26 1
  49   25   29 1
  50   26   27 2
  51   26   56 1
  52   27   28 1
  53   27   30 1
  54   28   29 2
  55   29   57 1
  56   30   58 1
  57   30   59 1
  58   30   60 1
  59   31   32 1
  60   31   61 1
  61   31   62 1
  62   31   63 1
  63   33   34 1
  64   33   64 1
  65   33   65 1
  66   34   35 1
  67   35   36 1
  68   35   38 2
  69   35   39 1
  70   36   37 1
  71   37   66 1
  72   37   67 1
  73   39   68 1
  74   39   69 1
  75   39   70 1

#	End of record

