#	Name: ASD01815960
#	Creating user name:	WinNT
#	Creation time:	15. 06. 2019 19:34

#	Modifying user name:	WinNT
#	Modification time:	15. 06. 2019 19:34

#	Program:	/corina/corina34_cracker 3.40 0067  02.08.2006

@<TRIPOS>MOLECULE
ASD01815960
  51   56    0    0    0
SMALL
NO_CHARGES


@<TRIPOS>ATOM
   1 C1             1.1861     2.2606    -0.5294 C.ar    
   2 C2             0.8022     0.9298    -0.5130 C.ar    
   3 C3             1.7403    -0.0717    -0.3557 C.ar    
   4 C4             3.0872     0.2504    -0.2121 C.ar    
   5 C5             3.4737     1.6003    -0.2295 C.ar    
   6 C6             2.5179     2.6017    -0.3884 C.ar    
   7 N7             4.0327    -0.7493    -0.0535 N.pl3   
   8 C8             5.3438    -0.4990     0.0897 C.2     
   9 C9             5.8387     0.7815     0.0883 C.2     
  10 C10            4.9055     1.9195    -0.0758 C.2     
  11 C11            7.1600     1.3883     0.2164 C.2     
  12 N12            6.9712     2.7228     0.1314 N.am    
  13 N13            5.6152     3.0108    -0.0429 N.2     
  14 C14            7.9896     3.6814     0.2067 C.ar    
  15 O15            8.2217     0.8066     0.3702 O.2     
  16 C16            3.5814    -2.1429    -0.0411 C.3     
  17 C17            3.4352    -2.6362    -1.4576 C.ar    
  18 C18            4.5181    -2.5899    -2.3200 C.ar    
  19 C19            4.3879    -3.0416    -3.6204 C.ar    
  20 C20            3.1659    -3.5430    -4.0610 C.ar    
  21 C21            2.0805    -3.5868    -3.1884 C.ar    
  22 C22            2.2217    -3.1389    -1.8906 C.ar    
  23 F23            2.8914     3.8999    -0.4050 F       
  24 F24            1.3506    -1.3651    -0.3408 F       
  25 C25            8.7067     4.0257    -0.9312 C.ar    
  26 C26            9.7105     4.9714    -0.8539 C.ar    
  27 C27           10.0026     5.5760     0.3551 C.ar    
  28 C28            9.2915     5.2368     1.4913 C.ar    
  29 C29            8.2811     4.2949     1.4203 C.ar    
  30 F30            7.5861     3.9632     2.5304 F       
  31 F31            5.7026    -2.1025    -1.8904 F       
  32 C32            3.0197    -4.0290    -5.4563 C.2     
  33 C33            1.8866    -4.5421    -6.0168 C.2     
  34 N34            2.1726    -4.8622    -7.2949 N.pl3   
  35 N35            3.5139    -4.5414    -7.5367 N.2     
  36 C36            4.0240    -4.0384    -6.4438 C.2     
  37 H37            0.4430     3.0338    -0.6572 H       
  38 H38           -0.2409     0.6727    -0.6239 H       
  39 H39            6.0271    -1.3268     0.2096 H       
  40 H40            4.3131    -2.7571     0.4838 H       
  41 H41            2.6197    -2.2089     0.4677 H       
  42 H42            5.2321    -3.0052    -4.2931 H       
  43 H43            1.1309    -3.9750    -3.5260 H       
  44 H44            1.3805    -3.1732    -1.2142 H       
  45 H45            8.4801     3.5542    -1.8761 H       
  46 H46           10.2685     5.2388    -1.7391 H       
  47 H47           10.7884     6.3148     0.4119 H       
  48 H48            9.5223     5.7106     2.4339 H       
  49 H49            0.9332    -4.6690    -5.5256 H       
  50 H50            1.5558    -5.2485    -7.9361 H       
  51 H51            5.0403    -3.6956    -6.3179 H       
@<TRIPOS>BOND
   1    1    2 ar
   2    1    6 ar
   3    1   37 1
   4    2    3 ar
   5    2   38 1
   6    3    4 ar
   7    3   24 1
   8    4    5 ar
   9    4    7 1
  10    5    6 ar
  11    5   10 1
  12    6   23 1
  13    7    8 1
  14    7   16 1
  15    8    9 2
  16    8   39 1
  17    9   10 1
  18    9   11 1
  19   10   13 2
  20   11   12 am
  21   11   15 2
  22   12   13 1
  23   12   14 1
  24   14   25 ar
  25   14   29 ar
  26   16   17 1
  27   16   40 1
  28   16   41 1
  29   17   18 ar
  30   17   22 ar
  31   18   19 ar
  32   18   31 1
  33   19   20 ar
  34   19   42 1
  35   20   21 ar
  36   20   32 1
  37   21   22 ar
  38   21   43 1
  39   22   44 1
  40   25   26 ar
  41   25   45 1
  42   26   27 ar
  43   26   46 1
  44   27   28 ar
  45   27   47 1
  46   28   29 ar
  47   28   48 1
  48   29   30 1
  49   32   33 2
  50   32   36 1
  51   33   34 1
  52   33   49 1
  53   34   35 1
  54   34   50 1
  55   35   36 2
  56   36   51 1

#	End of record

