#	Name: ASD01870516
#	Creating user name:	WinNT
#	Creation time:	15. 06. 2019 19:39

#	Modifying user name:	WinNT
#	Modification time:	15. 06. 2019 19:39

#	Program:	/corina/corina34_cracker 3.40 0067  02.08.2006

@<TRIPOS>MOLECULE
ASD01870516
  39   42    0    0    0
SMALL
NO_CHARGES


@<TRIPOS>ATOM
   1 C1            -0.0134     1.4409    -0.1413 C.ar    
   2 C2            -0.0035     0.0606    -0.1246 C.ar    
   3 C3             1.2004    -0.6348    -0.1105 C.ar    
   4 C4             2.3982     0.0664    -0.1138 C.ar    
   5 C5             2.3844     1.4771    -0.1313 C.ar    
   6 C6             1.1768     2.1540    -0.1448 C.ar    
   7 C7             3.8218    -0.3238    -0.1025 C.2     
   8 N8             4.5730     0.7920    -0.1129 N.am    
   9 C9             3.8022     1.8945    -0.1301 C.2     
  10 O10            4.2041     3.0406    -0.1429 O.2     
  11 O11            4.2444    -1.4626    -0.0861 O.2     
  12 C12            5.9758     0.8044    -0.1068 C.ar    
  13 C13            6.6590     2.0126    -0.1187 C.ar    
  14 C14            8.0401     2.0263    -0.1121 C.ar    
  15 C15            8.7461     0.8316    -0.0941 C.ar    
  16 C16            8.0622    -0.3797    -0.0822 C.ar    
  17 C17            6.6803    -0.3920    -0.0829 C.ar    
  18 F18            8.7485    -1.5433    -0.0647 F       
  19 N19           10.1472     0.8455    -0.0884 N.am    
  20 C20           10.8085     1.9118     0.4037 C.2     
  21 C21           12.2798     1.8905     0.4912 C.2     
  22 O22           10.1913     2.8917     0.7755 O.2     
  23 C23           13.0763     2.8881     0.9633 C.2     
  24 O24           14.3438     2.4562     0.8656 O.3     
  25 C25           14.3270     1.2210     0.3452 C.2     
  26 N26           13.0969     0.8675     0.1208 N.2     
  27 C27           12.6220     4.2234     1.4940 C.3     
  28 F28            1.2042    -1.9857    -0.0933 F       
  29 H29           -0.9549     1.9697    -0.1563 H       
  30 H30           -0.9369    -0.4826    -0.1220 H       
  31 H31            1.1612     3.2338    -0.1582 H       
  32 H32            6.1102     2.9427    -0.1334 H       
  33 H33            8.5707     2.9669    -0.1214 H       
  34 H34            6.1485    -1.3319    -0.0737 H       
  35 H35           10.6412     0.0878    -0.4386 H       
  36 H36           15.1979     0.6130     0.1496 H       
  37 H37           12.4496     4.1480     2.5677 H       
  38 H38           13.3908     4.9716     1.3011 H       
  39 H39           11.6971     4.5163     0.9972 H       
@<TRIPOS>BOND
   1    1    2 ar
   2    1    6 ar
   3    1   29 1
   4    2    3 ar
   5    2   30 1
   6    3    4 ar
   7    3   28 1
   8    4    5 ar
   9    4    7 1
  10    5    6 ar
  11    5    9 1
  12    6   31 1
  13    7    8 am
  14    7   11 2
  15    8    9 am
  16    8   12 1
  17    9   10 2
  18   12   13 ar
  19   12   17 ar
  20   13   14 ar
  21   13   32 1
  22   14   15 ar
  23   14   33 1
  24   15   16 ar
  25   15   19 1
  26   16   17 ar
  27   16   18 1
  28   17   34 1
  29   19   20 am
  30   19   35 1
  31   20   21 1
  32   20   22 2
  33   21   23 2
  34   21   26 1
  35   23   24 1
  36   23   27 1
  37   24   25 1
  38   25   26 2
  39   25   36 1
  40   27   37 1
  41   27   38 1
  42   27   39 1

#	End of record

