#	Name: ASD00840102
#	Creating user name:	WinNT
#	Creation time:	15. 06. 2019 18:37

#	Modifying user name:	WinNT
#	Modification time:	15. 06. 2019 18:37

#	Program:	/corina/corina34_cracker 3.40 0067  02.08.2006

@<TRIPOS>MOLECULE
ASD00840102
  94   99    0    0    0
SMALL
NO_CHARGES


@<TRIPOS>ATOM
   1 N1            -0.0824     1.3700     0.0078 N.3     
   2 C2            -0.1703    -0.0891     0.1484 C.3     
   3 C3             0.5880    -0.5287     1.4029 C.3     
   4 C4             2.0520    -0.0958     1.2864 C.3     
   5 C5             2.1135     1.4218     1.0923 C.3     
   6 C6             1.3110     1.8049    -0.1532 C.3     
   7 N7            -2.2597     5.3665    -2.7903 N.am    
   8 C8            -1.7458     4.1256    -2.8182 C.2     
   9 C9            -2.6355     3.2545    -1.9571 C.3     
  10 C10           -3.7039     4.2014    -1.4594 C.ar    
  11 C11           -4.7942     4.0283    -0.6443 C.ar    
  12 C12           -5.6241     5.1161    -0.3520 C.ar    
  13 C13           -5.3307     6.3725    -0.8968 C.ar    
  14 C14           -4.2330     6.5332    -1.7143 C.ar    
  15 C15           -3.4060     5.4475    -2.0046 C.ar    
  16 O16           -0.7552     3.7698    -3.4207 O.2     
  17 F17           -6.1258     7.4292    -0.6206 F       
  18 C18           -4.0050     1.1566    -2.1705 C.ar    
  19 C19           -3.2492     2.1506    -2.7792 C.ar    
  20 C20           -3.0678     2.1139    -4.1505 C.ar    
  21 C21           -3.6519     1.0788    -4.8682 C.ar    
  22 C22           -4.3903     0.1246    -4.1974 C.ar    
  23 N23           -4.5456     0.1864    -2.8884 N.ar    
  24 O24           -4.1856     1.1782    -0.8260 O.3     
  25 C25           -4.9727     0.1282    -0.2602 C.3     
  26 C26           -5.0642     0.3193     1.2551 C.3     
  27 S27           -1.6001     6.6555    -3.5938 S.o2    
  28 O28           -2.0443     7.8218    -2.9144 O.2     
  29 O29           -0.2272     6.3460    -3.7904 O.2     
  30 C30           -2.3337     6.7027    -5.1951 C.ar    
  31 C31           -2.1076     5.6680    -6.0922 C.ar    
  32 C32           -2.6851     5.7058    -7.3518 C.ar    
  33 C33           -3.4873     6.7776    -7.7123 C.ar    
  34 C34           -3.7102     7.8096    -6.8120 C.ar    
  35 C35           -3.1380     7.7669    -5.5547 C.ar    
  36 O36           -4.0544     6.8177    -8.9466 O.3     
  37 C37           -4.8689     7.9520    -9.2499 C.3     
  38 O38           -1.3205     4.6190    -5.7361 O.3     
  39 C39           -1.1315     3.5900    -6.7094 C.3     
  40 C40           -6.7646     4.9461     0.4971 C.1     
  41 N41           -7.6694     4.8112     1.1706 N.1     
  42 C42           -1.8558     2.6830    -0.8010 C.2     
  43 O43           -2.1286     3.0094     0.3348 O.2     
  44 N44           -0.8553     1.8093    -1.0292 N.am    
  45 N45            2.7718    -0.4634     2.5130 N.3     
  46 C46            4.2065    -0.1700     2.3898 C.3     
  47 C47            4.9058    -0.4920     3.7126 C.3     
  48 N48            4.6873    -1.9060     4.0477 N.3     
  49 C49            3.2526    -2.1994     4.1710 C.3     
  50 C50            2.5533    -1.8775     2.8482 C.3     
  51 C51            5.4071    -2.2736     5.2744 C.3     
  52 C52            4.9632    -3.6657     5.7284 C.3     
  53 H53           -1.2164    -0.3833     0.2346 H       
  54 H54            0.2698    -0.5656    -0.7276 H       
  55 H55            0.1397    -0.0634     2.2808 H       
  56 H56            0.5356    -1.6132     1.4985 H       
  57 H57            2.5114    -0.5913     0.4310 H       
  58 H58            1.6892     1.9178     1.9654 H       
  59 H59            3.1511     1.7308     0.9660 H       
  60 H60            1.7441     1.3195    -1.0278 H       
  61 H61            1.3408     2.8863    -0.2861 H       
  62 H62           -5.0113     3.0549    -0.2299 H       
  63 H63           -4.0116     7.5042    -2.1320 H       
  64 H64           -2.4855     2.8732    -4.6512 H       
  65 H65           -3.5301     1.0209    -5.9397 H       
  66 H66           -4.8470    -0.6824    -4.7510 H       
  67 H67           -5.9738     0.1523    -0.6906 H       
  68 H68           -4.5067    -0.8328    -0.4777 H       
  69 H69           -4.0631     0.2953     1.6855 H       
  70 H70           -5.5302     1.2804     1.4726 H       
  71 H71           -5.6646    -0.4815     1.6867 H       
  72 H72           -2.5101     4.9017    -8.0513 H       
  73 H73           -4.3350     8.6447    -7.0923 H       
  74 H74           -3.3162     8.5689    -4.8538 H       
  75 H75           -5.6985     8.0026    -8.5446 H       
  76 H76           -4.2707     8.8599    -9.1728 H       
  77 H77           -5.2589     7.8588   -10.2635 H       
  78 H78           -0.4847     2.8151    -6.2980 H       
  79 H79           -2.0965     3.1563    -6.9717 H       
  80 H80           -0.6692     4.0136    -7.6009 H       
  81 H81           -0.6841     1.4925    -1.9299 H       
  82 H82            4.6353    -0.7792     1.5941 H       
  83 H83            4.3429     0.8854     2.1538 H       
  84 H84            5.9747    -0.3025     3.6144 H       
  85 H85            4.4958     0.1367     4.5031 H       
  86 H86            3.1162    -3.2548     4.4069 H       
  87 H87            2.8238    -1.5902     4.9667 H       
  88 H88            1.4844    -2.0669     2.9464 H       
  89 H89            2.9633    -2.5061     2.0577 H       
  90 H90            6.4793    -2.2801     5.0784 H       
  91 H91            5.1851    -1.5482     6.0571 H       
  92 H92            3.8910    -3.6592     5.9244 H       
  93 H93            5.1851    -4.3911     4.9457 H       
  94 H94            5.4973    -3.9384     6.6386 H       
@<TRIPOS>BOND
   1    1    2 1
   2    1    6 1
   3    1   44 1
   4    2    3 1
   5    2   53 1
   6    2   54 1
   7    3    4 1
   8    3   55 1
   9    3   56 1
  10    4    5 1
  11    4   45 1
  12    4   57 1
  13    5    6 1
  14    5   58 1
  15    5   59 1
  16    6   60 1
  17    6   61 1
  18    7    8 am
  19    7   15 1
  20    7   27 am
  21    8    9 1
  22    8   16 2
  23    9   10 1
  24    9   19 1
  25    9   42 1
  26   10   11 ar
  27   10   15 ar
  28   11   12 ar
  29   11   62 1
  30   12   13 ar
  31   12   40 1
  32   13   14 ar
  33   13   17 1
  34   14   15 ar
  35   14   63 1
  36   18   19 ar
  37   18   23 ar
  38   18   24 1
  39   19   20 ar
  40   20   21 ar
  41   20   64 1
  42   21   22 ar
  43   21   65 1
  44   22   23 ar
  45   22   66 1
  46   24   25 1
  47   25   26 1
  48   25   67 1
  49   25   68 1
  50   26   69 1
  51   26   70 1
  52   26   71 1
  53   27   28 2
  54   27   29 2
  55   27   30 1
  56   30   31 ar
  57   30   35 ar
  58   31   32 ar
  59   31   38 1
  60   32   33 ar
  61   32   72 1
  62   33   34 ar
  63   33   36 1
  64   34   35 ar
  65   34   73 1
  66   35   74 1
  67   36   37 1
  68   37   75 1
  69   37   76 1
  70   37   77 1
  71   38   39 1
  72   39   78 1
  73   39   79 1
  74   39   80 1
  75   40   41 3
  76   42   43 2
  77   42   44 am
  78   44   81 1
  79   45   46 1
  80   45   50 1
  81   46   47 1
  82   46   82 1
  83   46   83 1
  84   47   48 1
  85   47   84 1
  86   47   85 1
  87   48   49 1
  88   48   51 1
  89   49   50 1
  90   49   86 1
  91   49   87 1
  92   50   88 1
  93   50   89 1
  94   51   52 1
  95   51   90 1
  96   51   91 1
  97   52   92 1
  98   52   93 1
  99   52   94 1

#	End of record

