#	Name: ASD01140083
#	Creating user name:	WinNT
#	Creation time:	15. 06. 2019 18:59

#	Modifying user name:	WinNT
#	Modification time:	15. 06. 2019 18:59

#	Program:	/corina/corina34_cracker 3.40 0067  02.08.2006

@<TRIPOS>MOLECULE
ASD01140083
  59   62    0    0    0
SMALL
NO_CHARGES


@<TRIPOS>ATOM
   1 C1            -0.3604     3.3711     0.7487 C.3     
   2 C2            -0.7514     1.9065     0.9372 C.3     
   3 C3             0.0343     1.2707     2.0795 C.3     
   4 C4             1.5405     1.4486     1.9141 C.3     
   5 C5             1.8926     2.9287     1.7482 C.3     
   6 C6             1.1493     3.5039     0.5486 C.3     
   7 C7             2.0514     0.6121     0.7455 C.3     
   8 C8             3.5701     0.7859     0.6003 C.3     
   9 C9             3.8318     2.2694     0.3302 C.3     
  10 C10            3.4116     3.0664     1.5644 C.3     
  11 C11            5.2311     2.5618    -0.0905 C.3     
  12 C12            6.0202     3.3905     0.9463 C.3     
  13 C13            5.3282     4.7102     1.1702 C.3     
  14 C14            3.8331     4.5211     1.4626 C.3     
  15 C15            6.1973     1.3935    -0.3352 C.3     
  16 C16            7.5349     2.1659    -0.5459 C.3     
  17 C17            7.3927     3.4912     0.2446 C.3     
  18 C18           -2.1928     1.8521     1.2739 C.1     
  19 C19            1.4931     3.6818     3.0243 C.3     
  20 C20            6.2598     2.6509     2.2599 C.3     
  21 C21            8.4819     3.6091     1.2753 C.2     
  22 C22            8.8871     4.9657     1.7915 C.3     
  23 O23            9.0316     2.6167     1.6891 O.2     
  24 H24            2.0293     1.0849     2.8323 H       
  25 O25           -0.5516     1.1854    -0.2777 O.3     
  26 C26           -3.3353     1.8090     1.5408 C.1     
  27 H27           -0.8644     3.7553    -0.1478 H       
  28 H28           -0.6917     3.9606     1.5987 H       
  29 H29           -0.2948     1.6905     3.0309 H       
  30 H30           -0.1905     0.1948     2.1006 H       
  31 H31            1.4352     2.9722    -0.3599 H       
  32 H32            1.4019     4.5604     0.4324 H       
  33 H33            1.8267    -0.4398     0.9205 H       
  34 H34            1.5822     0.9354    -0.1825 H       
  35 H35            4.0627     0.4838     1.5200 H       
  36 H36            3.9258     0.1908    -0.2368 H       
  37 H37            3.1622     2.5627    -0.5025 H       
  38 H38            3.8446     2.6166     2.4619 H       
  39 H39            5.1911     3.1508    -1.0359 H       
  40 H40            5.7989     5.2327     2.0151 H       
  41 H41            5.4495     5.3446     0.2821 H       
  42 H42            3.2548     5.0097     0.6668 H       
  43 H43            3.6030     5.0449     2.3995 H       
  44 H44            6.2542     0.7175     0.5053 H       
  45 H45            5.9258     0.8600    -1.2477 H       
  46 H46            8.3652     1.5809    -0.1569 H       
  47 H47            7.6767     2.3746    -1.6048 H       
  48 H48            7.3969     4.3424    -0.4284 H       
  49 H49            2.0344     3.2678     3.8750 H       
  50 H50            1.7403     4.7378     2.9153 H       
  51 H51            0.4209     3.5747     3.1888 H       
  52 H52            6.9480     1.8229     2.0903 H       
  53 H53            6.6895     3.3369     2.9899 H       
  54 H54            5.3129     2.2649     2.6375 H       
  55 H55            8.2852     5.7339     1.3061 H       
  56 H56            8.7284     5.0067     2.8691 H       
  57 H57            9.9410     5.1377     1.5727 H       
  58 H58           -1.0693     1.5194    -1.0230 H       
  59 H59           -4.3571     1.7704     1.7795 H       
@<TRIPOS>BOND
   1    1    2 1
   2    1    6 1
   3    1   27 1
   4    1   28 1
   5    2    3 1
   6    2   18 1
   7    2   25 1
   8    3    4 1
   9    3   29 1
  10    3   30 1
  11    4    5 1
  12    4    7 1
  13    4   24 1
  14    5    6 1
  15    5   19 1
  16    5   10 1
  17    6   31 1
  18    6   32 1
  19    7    8 1
  20    7   33 1
  21    7   34 1
  22    8    9 1
  23    8   35 1
  24    8   36 1
  25    9   10 1
  26    9   11 1
  27    9   37 1
  28   10   14 1
  29   10   38 1
  30   11   12 1
  31   11   15 1
  32   11   39 1
  33   12   13 1
  34   12   20 1
  35   12   17 1
  36   13   14 1
  37   13   40 1
  38   13   41 1
  39   14   42 1
  40   14   43 1
  41   15   16 1
  42   15   44 1
  43   15   45 1
  44   16   17 1
  45   16   46 1
  46   16   47 1
  47   17   21 1
  48   17   48 1
  49   18   26 3
  50   19   49 1
  51   19   50 1
  52   19   51 1
  53   20   52 1
  54   20   53 1
  55   20   54 1
  56   21   22 1
  57   21   23 2
  58   22   55 1
  59   22   56 1
  60   22   57 1
  61   25   58 1
  62   26   59 1

#	End of record

