#	Name: ASD01890416
#	Creating user name:	WinNT
#	Creation time:	15. 06. 2019 19:50

#	Modifying user name:	WinNT
#	Modification time:	15. 06. 2019 19:50

#	Program:	/corina/corina34_cracker 3.40 0067  02.08.2006

@<TRIPOS>MOLECULE
ASD01890416
  48   49    0    0    0
SMALL
NO_CHARGES


@<TRIPOS>ATOM
   1 C1             0.9624     0.1554    -0.9052 C.2     
   2 C2            -0.4092     0.0629    -0.2877 C.3     
   3 C3            -1.3622    -0.5636    -1.2728 C.2     
   4 O4             1.2103    -0.4515    -1.9200 O.2     
   5 O5             1.9070     0.9166    -0.3307 O.3     
   6 O6            -0.9341    -1.1952    -2.2096 O.2     
   7 O7            -2.6868    -0.4198    -1.1095 O.3     
   8 C8            -0.3428    -0.7978     0.9755 C.3     
   9 C9            -1.7543    -0.9986     1.5306 C.3     
  10 C10           -2.2942     0.3206     2.0197 C.2     
  11 C11           -3.6878     0.4194     2.4822 C.ar    
  12 C12           -4.2257     1.6619     2.8327 C.ar    
  13 C13           -5.5324     1.7462     3.2646 C.ar    
  14 C14           -6.3113     0.6055     3.3517 C.ar    
  15 C15           -5.7861    -0.6279     3.0071 C.ar    
  16 C16           -4.4829    -0.7279     2.5679 C.ar    
  17 C17           -7.7385     0.7067     3.8248 C.3     
  18 F18           -8.5800     0.9159     2.7269 F       
  19 F19           -8.1010    -0.4802     4.4707 F       
  20 F20           -7.8595     1.7783     4.7160 F       
  21 O21           -1.5804     1.3007     2.0322 O.2     
  22 C22            0.2602    -2.1374     0.6396 C.ar    
  23 C23            1.4247    -2.5466     1.2622 C.ar    
  24 C24            1.9783    -3.7751     0.9545 C.ar    
  25 C25            1.3667    -4.5954     0.0232 C.ar    
  26 C26            0.2013    -4.1853    -0.5995 C.ar    
  27 C27           -0.3544    -2.9590    -0.2868 C.ar    
  28 Cl28           2.0616    -6.1383    -0.3642 Cl      
  29 C29            3.2299     0.8888    -0.9287 C.3     
  30 C30           -3.5450    -1.0501    -2.0966 C.3     
  31 H31           -0.7592     1.0621    -0.0286 H       
  32 H32            0.2740    -0.2989     1.7231 H       
  33 H33           -2.4019    -1.3873     0.7447 H       
  34 H34           -1.7219    -1.7072     2.3582 H       
  35 H35           -3.6190     2.5529     2.7655 H       
  36 H36           -5.9491     2.7049     3.5360 H       
  37 H37           -6.4000    -1.5136     3.0785 H       
  38 H38           -4.0760    -1.6903     2.2947 H       
  39 H39            1.9022    -1.9060     1.9889 H       
  40 H40            2.8882    -4.0945     1.4407 H       
  41 H41           -0.2766    -4.8252    -1.3266 H       
  42 H42           -1.2665    -2.6406    -0.7697 H       
  43 H43            3.5837    -0.1408    -0.9803 H       
  44 H44            3.1830     1.3077    -1.9339 H       
  45 H45            3.9159     1.4788    -0.3209 H       
  46 H46           -3.3254    -0.6414    -3.0829 H       
  47 H47           -3.3654    -2.1252    -2.1006 H       
  48 H48           -4.5883    -0.8570    -1.8473 H       
@<TRIPOS>BOND
   1    1    2 1
   2    1    4 2
   3    1    5 1
   4    2    3 1
   5    2    8 1
   6    2   31 1
   7    3    6 2
   8    3    7 1
   9    5   29 1
  10    7   30 1
  11    8    9 1
  12    8   22 1
  13    8   32 1
  14    9   10 1
  15    9   33 1
  16    9   34 1
  17   10   11 1
  18   10   21 2
  19   11   12 ar
  20   11   16 ar
  21   12   13 ar
  22   12   35 1
  23   13   14 ar
  24   13   36 1
  25   14   15 ar
  26   14   17 1
  27   15   16 ar
  28   15   37 1
  29   16   38 1
  30   17   18 1
  31   17   19 1
  32   17   20 1
  33   22   23 ar
  34   22   27 ar
  35   23   24 ar
  36   23   39 1
  37   24   25 ar
  38   24   40 1
  39   25   26 ar
  40   25   28 1
  41   26   27 ar
  42   26   41 1
  43   27   42 1
  44   29   43 1
  45   29   44 1
  46   29   45 1
  47   30   46 1
  48   30   47 1
  49   30   48 1

#	End of record

