#	Name: ASD00431177
#	Creating user name:	WinNT
#	Creation time:	15. 06. 2019 18:35

#	Modifying user name:	WinNT
#	Modification time:	15. 06. 2019 18:35

#	Program:	/corina/corina34_cracker 3.40 0067  02.08.2006

@<TRIPOS>MOLECULE
ASD00431177
  53   55    0    0    0
SMALL
NO_CHARGES


@<TRIPOS>ATOM
   1 C1             0.2662     1.8798    -0.0070 C.2     
   2 C2             0.2757     0.3772    -0.1218 C.3     
   3 C3             1.7198    -0.1273    -0.0940 C.3     
   4 O4             1.3116     2.4873     0.0877 O.2     
   5 N5            -0.9037     2.5489    -0.0153 N.am    
   6 C6            -0.4989    -0.2287     1.0503 C.3     
   7 C7            -0.9129     4.0097     0.0963 C.3     
   8 C8            -0.7177     4.6282    -1.2894 C.3     
   9 O9            -3.4438     4.0270     0.3047 O.3     
  10 N10           -4.2997     4.5892     0.9547 N.2     
  11 C11           -3.7462     5.4325     1.7921 C.2     
  12 N12           -2.4068     5.3534     1.6093 N.2     
  13 C13           -2.2325     4.4616     0.6668 C.2     
  14 S14           -3.6954     7.4353     3.8731 S.3     
  15 C15           -5.2326     7.8925     4.4651 C.2     
  16 N16           -6.1663     7.2337     3.8498 N.2     
  17 C17           -5.7869     6.3762     2.9285 C.2     
  18 C18           -4.4506     6.3044     2.7529 C.2     
  19 O19           -5.4457     8.8108     5.4371 O.3     
  20 C20           -6.7310     9.1421     5.7316 C.ar    
  21 C21           -7.5725     8.2059     6.3147 C.ar    
  22 C22           -8.8782     8.5426     6.6138 C.ar    
  23 C23           -9.3482     9.8166     6.3308 C.ar    
  24 C24           -8.5071    10.7525     5.7474 C.ar    
  25 C25           -7.1994    10.4182     5.4543 C.ar    
  26 O26          -10.6338    10.1477     6.6248 O.3     
  27 C27          -11.0277    11.4994     6.3803 C.3     
  28 C28          -12.5473    11.5659     6.2149 C.3     
  29 C29          -10.6044    12.3756     7.5610 C.3     
  30 H30           -0.1945     0.0815    -1.0597 H       
  31 H31            2.1900     0.1684     0.8439 H       
  32 H32            1.7266    -1.2141    -0.1770 H       
  33 H33            2.2716     0.3043    -0.9290 H       
  34 H34           -1.7396     2.0634    -0.0950 H       
  35 H35           -0.0288     0.0671     1.9882 H       
  36 H36           -1.5278     0.1308     1.0305 H       
  37 H37           -0.4921    -1.3155     0.9673 H       
  38 H38           -0.1043     4.3289     0.7539 H       
  39 H39            0.2367     4.3014    -1.7020 H       
  40 H40           -1.5263     4.3090    -1.9470 H       
  41 H41           -0.7245     5.7150    -1.2064 H       
  42 H42           -6.4853     5.7793     2.3607 H       
  43 H43           -7.2068     7.2138     6.5344 H       
  44 H44           -9.5333     7.8138     7.0677 H       
  45 H45           -8.8733    11.7442     5.5264 H       
  46 H46           -6.5431    11.1484     5.0045 H       
  47 H47          -10.5472    11.8590     5.4704 H       
  48 H48          -13.0279    11.2063     7.1248 H       
  49 H49          -12.8478    12.5969     6.0284 H       
  50 H50          -12.8489    10.9417     5.3738 H       
  51 H51          -10.9048    13.4066     7.3744 H       
  52 H52          -11.0849    12.0161     8.4709 H       
  53 H53           -9.5218    12.3283     7.6788 H       
@<TRIPOS>BOND
   1    1    2 1
   2    1    4 2
   3    1    5 am
   4    2    3 1
   5    2    6 1
   6    2   30 1
   7    3   31 1
   8    3   32 1
   9    3   33 1
  10    5    7 1
  11    5   34 1
  12    6   35 1
  13    6   36 1
  14    6   37 1
  15    7    8 1
  16    7   13 1
  17    7   38 1
  18    8   39 1
  19    8   40 1
  20    8   41 1
  21    9   10 1
  22    9   13 1
  23   10   11 2
  24   11   12 1
  25   11   18 1
  26   12   13 2
  27   14   15 1
  28   14   18 1
  29   15   16 2
  30   15   19 1
  31   16   17 1
  32   17   18 2
  33   17   42 1
  34   19   20 1
  35   20   21 ar
  36   20   25 ar
  37   21   22 ar
  38   21   43 1
  39   22   23 ar
  40   22   44 1
  41   23   24 ar
  42   23   26 1
  43   24   25 ar
  44   24   45 1
  45   25   46 1
  46   26   27 1
  47   27   28 1
  48   27   29 1
  49   27   47 1
  50   28   48 1
  51   28   49 1
  52   28   50 1
  53   29   51 1
  54   29   52 1
  55   29   53 1

#	End of record

