#	Name: ASD01150842
#	Creating user name:	WinNT
#	Creation time:	15. 06. 2019 19:05

#	Modifying user name:	WinNT
#	Modification time:	15. 06. 2019 19:05

#	Program:	/corina/corina34_cracker 3.40 0067  02.08.2006

@<TRIPOS>MOLECULE
ASD01150842
  58   61    0    0    0
SMALL
NO_CHARGES


@<TRIPOS>ATOM
   1 C1            -0.0157     1.3102     0.0092 C.2     
   2 N2             0.0021    -0.0041     0.0020 N.2     
   3 C3             1.2637    -0.4446    -0.0124 C.2     
   4 C4             2.0987     0.6650    -0.0144 C.2     
   5 N5             1.2581     1.7784    -0.0004 N.pl3   
   6 C6             3.5095     0.6662    -0.0279 C.2     
   7 O7             4.1191    -0.3878    -0.0398 O.2     
   8 O8             4.1837     1.8361    -0.0275 O.3     
   9 O9            -1.1295     2.0762     0.0189 O.3     
  10 C10           -2.3855     1.3948     0.0219 C.3     
  11 C11            1.6536     3.1234     0.0026 C.ar    
  12 C12            1.3731     3.9278     1.0988 C.ar    
  13 C13            1.7639     5.2525     1.1002 C.ar    
  14 C14            2.4351     5.7784     0.0090 C.ar    
  15 C15            2.7158     4.9776    -1.0853 C.ar    
  16 C16            2.3312     3.6511    -1.0882 C.ar    
  17 F17            2.8162     7.0745     0.0120 F       
  18 N18            1.6679    -1.7753    -0.0227 N.am    
  19 C19            0.7469    -2.7593    -0.0189 C.2     
  20 O20           -0.4342    -2.4844    -0.0066 O.2     
  21 O21            0.0415    -5.0541     0.0939 O.3     
  22 C22            1.1849    -4.2012    -0.0301 C.3     
  23 C23            1.8805    -4.5206    -1.3603 C.3     
  24 O24            2.2713    -5.8979    -1.3423 O.3     
  25 C25            1.3394    -6.7925    -0.9137 C.ar    
  26 C26            0.2270    -6.3714    -0.1941 C.ar    
  27 C27            1.5062    -8.1390    -1.1998 C.ar    
  28 C28            0.5696    -9.0598    -0.7688 C.ar    
  29 C29           -0.5355    -8.6413    -0.0520 C.ar    
  30 C30           -0.7080    -7.3004     0.2363 C.ar    
  31 C31            5.6107     1.7625    -0.0416 C.3     
  32 C32            6.0709     1.0232    -1.2996 C.3     
  33 C33            6.1944     3.1768    -0.0389 C.3     
  34 C34            6.0948     1.0087     1.1987 C.3     
  35 H35           -2.4645     0.7744    -0.8708 H       
  36 H36           -2.4553     0.7654     0.9091 H       
  37 H37           -3.1949     2.1248     0.0298 H       
  38 H38            0.8493     3.5181     1.9498 H       
  39 H39            1.5455     5.8787     1.9526 H       
  40 H40            3.2394     5.3895    -1.9353 H       
  41 H41            2.5540     3.0257    -1.9401 H       
  42 H42            2.6126    -1.9952    -0.0326 H       
  43 H43            1.8708    -4.3834     0.7972 H       
  44 H44            1.1919    -4.3447    -2.1868 H       
  45 H45            2.7620    -3.8898    -1.4749 H       
  46 H46            2.3686    -8.4686    -1.7602 H       
  47 H47            0.7015   -10.1081    -0.9928 H       
  48 H48           -1.2651    -9.3632     0.2840 H       
  49 H49           -1.5722    -6.9760     0.7970 H       
  50 H50            5.7261     1.5602    -2.1832 H       
  51 H51            7.1594     0.9670    -1.3103 H       
  52 H52            5.6551     0.0156    -1.3015 H       
  53 H53            5.8666     3.7034     0.8573 H       
  54 H54            7.2829     3.1206    -0.0497 H       
  55 H55            5.8496     3.7138    -0.9226 H       
  56 H56            5.6789     0.0011     1.1969 H       
  57 H57            7.1833     0.9525     1.1880 H       
  58 H58            5.7669     1.5354     2.0950 H       
@<TRIPOS>BOND
   1    1    2 2
   2    1    5 1
   3    1    9 1
   4    2    3 1
   5    3    4 2
   6    3   18 1
   7    4    5 1
   8    4    6 1
   9    5   11 1
  10    6    7 2
  11    6    8 1
  12    8   31 1
  13    9   10 1
  14   10   35 1
  15   10   36 1
  16   10   37 1
  17   11   12 ar
  18   11   16 ar
  19   12   13 ar
  20   12   38 1
  21   13   14 ar
  22   13   39 1
  23   14   15 ar
  24   14   17 1
  25   15   16 ar
  26   15   40 1
  27   16   41 1
  28   18   19 am
  29   18   42 1
  30   19   20 2
  31   19   22 1
  32   21   22 1
  33   21   26 1
  34   22   23 1
  35   22   43 1
  36   23   24 1
  37   23   44 1
  38   23   45 1
  39   24   25 1
  40   25   26 ar
  41   25   27 ar
  42   26   30 ar
  43   27   28 ar
  44   27   46 1
  45   28   29 ar
  46   28   47 1
  47   29   30 ar
  48   29   48 1
  49   30   49 1
  50   31   32 1
  51   31   34 1
  52   31   33 1
  53   32   50 1
  54   32   51 1
  55   32   52 1
  56   33   53 1
  57   33   54 1
  58   33   55 1
  59   34   56 1
  60   34   57 1
  61   34   58 1

#	End of record

