#	Name: ASD03091384
#	Creating user name:	WinNT
#	Creation time:	15. 06. 2019 20:30

#	Modifying user name:	WinNT
#	Modification time:	15. 06. 2019 20:30

#	Program:	/corina/corina34_cracker 3.40 0067  02.08.2006

@<TRIPOS>MOLECULE
ASD03091384
  48   52    0    0    0
SMALL
NO_CHARGES


@<TRIPOS>ATOM
   1 N1            -0.2694     2.3800     0.6943 N.am    
   2 C2            -0.1899     1.0453     0.9402 C.2     
   3 N3            -1.2251     0.2633     0.9780 N.2     
   4 C4            -2.4810     0.7343     0.7707 C.ar    
   5 C5            -2.6609     2.1105     0.5076 C.ar    
   6 C6            -1.4680     2.9699     0.4771 C.2     
   7 O7            -1.5544     4.1639     0.2560 O.2     
   8 C8            -3.5942    -0.1082     0.8112 C.ar    
   9 C9            -4.8426     0.4023     0.5972 C.ar    
  10 C10           -5.0261     1.7603     0.3370 C.ar    
  11 C11           -3.9400     2.6178     0.2912 C.ar    
  12 N12           -6.3140     2.2584     0.1208 N.3     
  13 C13            0.9524     3.1879     0.6701 C.3     
  14 C14           -7.1628     1.2569    -0.5986 C.3     
  15 C15           -6.2799     3.4624    -0.7440 C.3     
  16 C16           -7.1886     3.1123    -1.9630 C.3     
  17 N17           -6.3971     2.0990    -2.7295 N.3     
  18 C18           -6.3307     0.8943    -1.8675 C.3     
  19 C19           -5.0513     2.6030    -3.0342 C.3     
  20 C20           -8.2434     2.1923    -1.2501 C.3     
  21 C21            1.5080     3.2165    -0.7305 C.2     
  22 C22            1.2171     4.1131    -1.6901 C.2     
  23 C23            2.4397     2.3098    -1.2860 C.2     
  24 C24            2.6580     2.7031    -2.5537 C.2     
  25 O25            1.9148     3.7959    -2.7929 O.3     
  26 C26            3.5826     2.0334    -3.5374 C.3     
  27 H27            0.7849     0.6134     1.1125 H       
  28 H28           -3.4679    -1.1619     1.0111 H       
  29 H29           -5.6994    -0.2544     0.6295 H       
  30 H30           -4.0830     3.6691     0.0897 H       
  31 H31            0.7226     4.2040     0.9906 H       
  32 H32            1.6896     2.7521     1.3445 H       
  33 H33           -7.5242     0.4182    -0.0036 H       
  34 H34           -6.6794     4.3241    -0.2092 H       
  35 H35           -5.2610     3.6611    -1.0762 H       
  36 H36           -7.5715     3.9565    -2.5365 H       
  37 H37           -5.2974     0.6808    -1.5942 H       
  38 H38           -6.7726     0.0387    -2.3781 H       
  39 H39           -4.4724     2.6730    -2.1133 H       
  40 H40           -4.5553     1.9204    -3.7242 H       
  41 H41           -5.1277     3.5896    -3.4912 H       
  42 H42           -8.8774     1.6613    -1.9602 H       
  43 H43           -8.8278     2.7321    -0.5050 H       
  44 H44            0.5373     4.9464    -1.5907 H       
  45 H45            2.8903     1.4640    -0.7879 H       
  46 H46            3.0332     1.2736    -4.0932 H       
  47 H47            3.9761     2.7771    -4.2304 H       
  48 H48            4.4074     1.5652    -3.0001 H       
@<TRIPOS>BOND
   1    1    2 1
   2    1   13 1
   3    1    6 am
   4    2    3 2
   5    2   27 1
   6    3    4 1
   7    4    5 ar
   8    4    8 ar
   9    5    6 1
  10    5   11 ar
  11    6    7 2
  12    8    9 ar
  13    8   28 1
  14    9   10 ar
  15    9   29 1
  16   10   11 ar
  17   10   12 1
  18   11   30 1
  19   12   15 1
  20   12   14 1
  21   13   21 1
  22   13   31 1
  23   13   32 1
  24   14   18 1
  25   14   20 1
  26   14   33 1
  27   15   16 1
  28   15   34 1
  29   15   35 1
  30   16   17 1
  31   16   20 1
  32   16   36 1
  33   17   18 1
  34   17   19 1
  35   18   37 1
  36   18   38 1
  37   19   39 1
  38   19   40 1
  39   19   41 1
  40   20   42 1
  41   20   43 1
  42   21   22 2
  43   21   23 1
  44   22   25 1
  45   22   44 1
  46   23   24 2
  47   23   45 1
  48   24   25 1
  49   24   26 1
  50   26   46 1
  51   26   47 1
  52   26   48 1

#	End of record

