#	Name: ASD02198700
#	Creating user name:	WinNT
#	Creation time:	15. 06. 2019 20:20

#	Modifying user name:	WinNT
#	Modification time:	15. 06. 2019 20:20

#	Program:	/corina/corina34_cracker 3.40 0067  02.08.2006

@<TRIPOS>MOLECULE
ASD02198700
  53   57    0    0    0
SMALL
NO_CHARGES


@<TRIPOS>ATOM
   1 C1            -0.0433     1.5017    -0.1151 C.2     
   2 C2            -0.0730     0.1619     0.0974 C.2     
   3 N3             1.0713    -0.5397     0.2602 N.pl3   
   4 N4             2.2358    -0.0048     0.2266 N.2     
   5 C5             2.4072     1.2847     0.0280 C.2     
   6 C6             1.2215     2.1357    -0.1605 C.2     
   7 C7             0.9798    -1.9180     0.4765 C.ar    
   8 C8             1.5819    -2.4890     1.5977 C.ar    
   9 C9             1.4908    -3.8531     1.8110 C.ar    
  10 C10            0.7978    -4.6529     0.9049 C.ar    
  11 C11            0.1975    -4.0775    -0.2146 C.ar    
  12 C12            0.2845    -2.7172    -0.4224 C.ar    
  13 C13            3.7641     1.8672    -0.0041 C.2     
  14 N14            4.3064     2.6071    -1.0171 N.pl3   
  15 N15            5.6081     2.9590    -0.6387 N.2     
  16 C16            5.8514     2.4597     0.5469 C.2     
  17 C17            4.7194     1.7720     0.9841 C.2     
  18 C18            3.6740     2.9513    -2.2185 C.ar    
  19 C19            3.8078     4.2343    -2.7325 C.ar    
  20 C20            3.1833     4.5705    -3.9176 C.ar    
  21 C21            2.4251     3.6311    -4.5920 C.ar    
  22 C22            2.2898     2.3526    -4.0827 C.ar    
  23 C23            2.9165     2.0085    -2.9010 C.ar    
  24 O24            1.3245     3.3388    -0.3487 O.2     
  25 C25            0.6989    -6.1159     1.1306 C.2     
  26 C26            0.0631    -7.0160     0.3326 C.2     
  27 C27            1.2545    -6.8408     2.2157 C.2     
  28 C28            0.9336    -8.1361     2.0390 C.2     
  29 N29            0.2059    -8.2497     0.8907 N.pl3   
  30 O30            2.2577    -1.7063     2.4796 O.3     
  31 C31            2.8491    -2.3586     3.6051 C.3     
  32 C32           -0.3342    -9.4977     0.3457 C.3     
  33 H33           -0.9546     2.0653    -0.2497 H       
  34 H34           -1.0229    -0.3505     0.1373 H       
  35 H35            1.9566    -4.2972     2.6783 H       
  36 H36           -0.3398    -4.6973    -0.9171 H       
  37 H37           -0.1811    -2.2735    -1.2900 H       
  38 H38            6.7747     2.5659     1.0970 H       
  39 H39            4.6132     1.2527     1.9251 H       
  40 H40            4.3993     4.9687    -2.2059 H       
  41 H41            3.2870     5.5682    -4.3179 H       
  42 H42            1.9371     3.8966    -5.5182 H       
  43 H43            1.6970     1.6211    -4.6117 H       
  44 H44            2.8108     1.0097    -2.5040 H       
  45 H45           -0.4630    -6.7912    -0.5834 H       
  46 H46            1.8293    -6.4297     3.0324 H       
  47 H47            1.2085    -8.9491     2.6946 H       
  48 H48            3.5700    -3.0991     3.2585 H       
  49 H49            3.3563    -1.6212     4.2273 H       
  50 H50            2.0721    -2.8532     4.1881 H       
  51 H51           -1.3341    -9.6662     0.7457 H       
  52 H52           -0.3846    -9.4279    -0.7409 H       
  53 H53            0.3141   -10.3276     0.6268 H       
@<TRIPOS>BOND
   1    1    2 2
   2    1    6 1
   3    1   33 1
   4    2    3 1
   5    2   34 1
   6    3    4 1
   7    3    7 1
   8    4    5 2
   9    5    6 1
  10    5   13 1
  11    6   24 2
  12    7    8 ar
  13    7   12 ar
  14    8    9 ar
  15    8   30 1
  16    9   10 ar
  17    9   35 1
  18   10   11 ar
  19   10   25 1
  20   11   12 ar
  21   11   36 1
  22   12   37 1
  23   13   14 1
  24   13   17 2
  25   14   15 1
  26   14   18 1
  27   15   16 2
  28   16   17 1
  29   16   38 1
  30   17   39 1
  31   18   19 ar
  32   18   23 ar
  33   19   20 ar
  34   19   40 1
  35   20   21 ar
  36   20   41 1
  37   21   22 ar
  38   21   42 1
  39   22   23 ar
  40   22   43 1
  41   23   44 1
  42   25   27 1
  43   25   26 2
  44   26   29 1
  45   26   45 1
  46   27   28 2
  47   27   46 1
  48   28   29 1
  49   28   47 1
  50   29   32 1
  51   30   31 1
  52   31   48 1
  53   31   49 1
  54   31   50 1
  55   32   51 1
  56   32   52 1
  57   32   53 1

#	End of record

