#	Name: ASD03331044
#	Creating user name:	WinNT
#	Creation time:	15. 06. 2019 20:38

#	Modifying user name:	WinNT
#	Modification time:	15. 06. 2019 20:38

#	Program:	/corina/corina34_cracker 3.40 0067  02.08.2006

@<TRIPOS>MOLECULE
ASD03331044
  71   75    0    0    0
SMALL
NO_CHARGES


@<TRIPOS>ATOM
   1 N1            -0.5962     1.6985    -0.1675 N.pl3   
   2 C2            -0.4220     0.3536    -0.0690 C.2     
   3 C3             0.9011    -0.3516     0.0771 C.3     
   4 N4             1.6918     0.3183     1.1214 N.3     
   5 C5             2.4990     1.4037     0.5611 C.3     
   6 C6             1.7764     2.0768    -0.6023 C.3     
   7 C7             0.4695     2.7029    -0.1083 C.3     
   8 C8            -1.9330     1.9274    -0.3173 C.2     
   9 N9            -2.5605     0.7750    -0.2942 N.2     
  10 C10           -1.6563    -0.2169    -0.1393 C.2     
  11 C11           -1.9529    -1.6582    -0.0610 C.2     
  12 O12           -1.0479    -2.4585     0.0795 O.2     
  13 N13           -3.2270    -2.0896    -0.1450 N.am    
  14 C14            2.5335    -0.6450     1.8437 C.3     
  15 C15           -4.8248    -3.8062    -0.7691 C.2     
  16 C16           -3.5218    -3.5225    -0.0671 C.3     
  17 C17           -3.6312    -3.9417     1.4002 C.3     
  18 C18           -4.0472    -5.4118     1.4810 C.3     
  19 O19           -5.7298    -3.0005    -0.7166 O.2     
  20 C20           -2.2761    -3.7567     2.0859 C.3     
  21 C21           -4.6799    -3.0757     2.1011 C.3     
  22 C22           -6.2162    -5.4256    -2.0968 C.3     
  23 N23           -4.9844    -4.9552    -1.4553 N.am    
  24 C24           -3.9593    -5.9739    -1.7037 C.3     
  25 C25           -4.5951    -7.0766    -2.5118 C.ar    
  26 C26           -4.0753    -8.2602    -3.0073 C.ar    
  27 C27           -4.8780    -9.1198    -3.7321 C.ar    
  28 C28           -6.2026    -8.7980    -3.9628 C.ar    
  29 C29           -6.7220    -7.6173    -3.4683 C.ar    
  30 C30           -5.9180    -6.7552    -2.7422 C.ar    
  31 C31           -2.5687     3.2531    -0.4784 C.ar    
  32 C32           -3.5238     3.4567    -1.4781 C.ar    
  33 C33           -4.1141     4.6981    -1.6225 C.ar    
  34 C34           -3.7611     5.7366    -0.7803 C.ar    
  35 C35           -2.8151     5.5409     0.2117 C.ar    
  36 C36           -2.2219     4.3041     0.3705 C.ar    
  37 F37           -3.8689     2.4428    -2.3016 F       
  38 Cl38          -2.3787     6.8519     1.2626 Cl      
  39 H39            0.7310    -1.3906     0.3591 H       
  40 H40            1.4407    -0.3135    -0.8692 H       
  41 H41            2.6935     2.1432     1.3379 H       
  42 H42            3.4474     0.9989     0.2076 H       
  43 H43            2.4139     2.8540    -1.0239 H       
  44 H44            1.5554     1.3349    -1.3696 H       
  45 H45            0.2081     3.5495    -0.7432 H       
  46 H46            0.5938     3.0421     0.9201 H       
  47 H47           -3.9487    -1.4513    -0.2571 H       
  48 H48            3.1669    -1.1775     1.1342 H       
  49 H49            3.1587    -0.1143     2.5617 H       
  50 H50            1.8995    -1.3578     2.3709 H       
  51 H51           -2.7207    -4.0849    -0.5469 H       
  52 H52           -3.2615    -6.0357     1.0550 H       
  53 H53           -4.2052    -5.6879     2.5236 H       
  54 H54           -4.9713    -5.5592     0.9221 H       
  55 H55           -1.9797    -2.7093     2.0284 H       
  56 H56           -2.3540    -4.0553     3.1313 H       
  57 H57           -1.5290    -4.3736     1.5866 H       
  58 H58           -5.6453    -3.2075     1.6127 H       
  59 H59           -4.7579    -3.3743     3.1465 H       
  60 H60           -4.3835    -2.0283     2.0436 H       
  61 H61           -6.9998    -5.5456    -1.3487 H       
  62 H62           -6.5344    -4.7100    -2.8549 H       
  63 H63           -3.1316    -5.5366    -2.2622 H       
  64 H64           -3.5970    -6.3721    -0.7559 H       
  65 H65           -3.0406    -8.5118    -2.8272 H       
  66 H66           -4.4708   -10.0424    -4.1186 H       
  67 H67           -6.8308    -9.4691    -4.5296 H       
  68 H68           -7.7567    -7.3659    -3.6489 H       
  69 H69           -4.8521     4.8574    -2.3947 H       
  70 H70           -4.2251     6.7048    -0.8970 H       
  71 H71           -1.4878     4.1519     1.1479 H       
@<TRIPOS>BOND
   1    1    2 1
   2    1    7 1
   3    1    8 1
   4    2    3 1
   5    2   10 2
   6    3    4 1
   7    3   39 1
   8    3   40 1
   9    4    5 1
  10    4   14 1
  11    5    6 1
  12    5   41 1
  13    5   42 1
  14    6    7 1
  15    6   43 1
  16    6   44 1
  17    7   45 1
  18    7   46 1
  19    8    9 2
  20    8   31 1
  21    9   10 1
  22   10   11 1
  23   11   12 2
  24   11   13 am
  25   13   16 1
  26   13   47 1
  27   14   48 1
  28   14   49 1
  29   14   50 1
  30   15   19 2
  31   15   23 am
  32   15   16 1
  33   16   17 1
  34   16   51 1
  35   17   18 1
  36   17   20 1
  37   17   21 1
  38   18   52 1
  39   18   53 1
  40   18   54 1
  41   20   55 1
  42   20   56 1
  43   20   57 1
  44   21   58 1
  45   21   59 1
  46   21   60 1
  47   22   23 1
  48   22   30 1
  49   22   61 1
  50   22   62 1
  51   23   24 1
  52   24   25 1
  53   24   63 1
  54   24   64 1
  55   25   26 ar
  56   25   30 ar
  57   26   27 ar
  58   26   65 1
  59   27   28 ar
  60   27   66 1
  61   28   29 ar
  62   28   67 1
  63   29   30 ar
  64   29   68 1
  65   31   32 ar
  66   31   36 ar
  67   32   33 ar
  68   32   37 1
  69   33   34 ar
  70   33   69 1
  71   34   35 ar
  72   34   70 1
  73   35   36 ar
  74   35   38 1
  75   36   71 1

#	End of record

