#	Name: ASD01180214
#	Creating user name:	WinNT
#	Creation time:	15. 06. 2019 19:07

#	Modifying user name:	WinNT
#	Modification time:	15. 06. 2019 19:07

#	Program:	/corina/corina34_cracker 3.40 0067  02.08.2006

@<TRIPOS>MOLECULE
ASD01180214
  68   72    0    0    0
SMALL
NO_CHARGES


@<TRIPOS>ATOM
   1 C1            -2.8503     1.2036    -4.8559 C.3     
   2 C2            -2.1587     0.4280    -3.7329 C.3     
   3 C3            -1.3640     1.3987    -2.8571 C.3     
   4 N4            -3.1698    -0.2545    -2.9145 N.3     
   5 C5            -4.1872     0.7059    -2.4149 C.3     
   6 C6            -4.8198     0.0028    -1.1947 C.3     
   7 C7            -3.7519    -1.0003    -0.7120 C.3     
   8 C8            -2.5640    -0.8188    -1.6810 C.3     
   9 H9            -1.8353    -0.1242    -1.2633 H       
  10 C10           -1.9071    -2.1683    -1.9785 C.3     
  11 N11           -0.7759    -1.9708    -2.8881 N.am    
  12 C12           -0.1376    -3.0365    -3.4110 C.2     
  13 O13           -0.4997    -4.1589    -3.1285 O.2     
  14 C14            1.0261    -2.8333    -4.3468 C.3     
  15 H15            1.2500    -1.7693    -4.4233 H       
  16 C16            2.2487    -3.5744    -3.8086 C.3     
  17 N17            3.3222    -3.6714    -4.7909 N.am    
  18 C18            4.7066    -3.4720    -4.3551 C.3     
  19 C19            4.8916    -2.0354    -3.8242 C.3     
  20 C20            4.7140    -2.1710    -2.2915 C.3     
  21 C21            5.4045    -3.5233    -1.9857 C.3     
  22 C22            5.0327    -4.4180    -3.1861 C.3     
  23 C23            3.0750    -3.9411    -6.0939 C.2     
  24 O24            3.9687    -4.2197    -6.8707 O.2     
  25 C25            1.6655    -3.8798    -6.5224 C.2     
  26 C26            1.0977    -4.2699    -7.6828 C.2     
  27 C27            1.8098    -4.8715    -8.8669 C.3     
  28 C28           -0.2816    -4.0117    -7.5833 C.ar    
  29 C29           -1.3361    -4.2220    -8.4830 C.ar    
  30 C30           -2.5907    -3.8553    -8.0674 C.ar    
  31 C31           -2.8204    -3.3012    -6.8180 C.ar    
  32 C32           -1.8014    -3.0798    -5.9093 C.ar    
  33 C33           -0.5121    -3.4410    -6.3010 C.ar    
  34 N34            0.6850    -3.3586    -5.6737 N.pl3   
  35 H35           -2.1001     1.7100    -5.4632 H       
  36 H36           -3.4165     0.5120    -5.4799 H       
  37 H37           -3.5271     1.9413    -4.4247 H       
  38 H38           -1.4820    -0.3096    -4.1641 H       
  39 H39           -2.0515     2.0711    -2.3438 H       
  40 H40           -0.7885     0.8366    -2.1216 H       
  41 H41           -0.6860     1.9800    -3.4819 H       
  42 H42           -3.7125     1.6392    -2.1120 H       
  43 H43           -4.9414     0.8926    -3.1793 H       
  44 H44           -5.0393     0.7284    -0.4115 H       
  45 H45           -5.7277    -0.5234    -1.4897 H       
  46 H46           -3.4473    -0.7671     0.3083 H       
  47 H47           -4.1356    -2.0188    -0.7699 H       
  48 H48           -1.5522    -2.6125    -1.0485 H       
  49 H49           -2.6356    -2.8324    -2.4435 H       
  50 H50           -0.4862    -1.0730    -3.1141 H       
  51 H51            2.6215    -3.0477    -2.9301 H       
  52 H52            1.9494    -4.5801    -3.5133 H       
  53 H53            5.3890    -3.6549    -5.1851 H       
  54 H54            5.8896    -1.6667    -4.0614 H       
  55 H55            4.1310    -1.3743    -4.2394 H       
  56 H56            5.2150    -1.3550    -1.7709 H       
  57 H57            3.6572    -2.2084    -2.0270 H       
  58 H58            6.4853    -3.3949    -1.9260 H       
  59 H59            5.0182    -3.9480    -1.0592 H       
  60 H60            4.1609    -5.0255    -2.9431 H       
  61 H61            5.8740    -5.0595    -3.4485 H       
  62 H62            1.8333    -5.9564    -8.7639 H       
  63 H63            1.2819    -4.6048    -9.7824 H       
  64 H64            2.8294    -4.4886    -8.9107 H       
  65 H65           -1.1681    -4.6527    -9.4590 H       
  66 H66           -3.4266    -4.0036    -8.7351 H       
  67 H67           -3.8301    -3.0326    -6.5446 H       
  68 H68           -1.9954    -2.6469    -4.9390 H       
@<TRIPOS>BOND
   1    1    2 1
   2    1   35 1
   3    1   36 1
   4    1   37 1
   5    2    3 1
   6    2    4 1
   7    2   38 1
   8    3   39 1
   9    3   40 1
  10    3   41 1
  11    4    8 1
  12    4    5 1
  13    5    6 1
  14    5   42 1
  15    5   43 1
  16    6    7 1
  17    6   44 1
  18    6   45 1
  19    7    8 1
  20    7   46 1
  21    7   47 1
  22    8    9 1
  23    8   10 1
  24   10   11 1
  25   10   48 1
  26   10   49 1
  27   11   12 am
  28   11   50 1
  29   12   13 2
  30   12   14 1
  31   14   15 1
  32   14   34 1
  33   14   16 1
  34   16   17 1
  35   16   51 1
  36   16   52 1
  37   17   18 1
  38   17   23 am
  39   18   22 1
  40   18   19 1
  41   18   53 1
  42   19   20 1
  43   19   54 1
  44   19   55 1
  45   20   21 1
  46   20   56 1
  47   20   57 1
  48   21   22 1
  49   21   58 1
  50   21   59 1
  51   22   60 1
  52   22   61 1
  53   23   24 2
  54   23   25 1
  55   25   34 1
  56   25   26 2
  57   26   27 1
  58   26   28 1
  59   27   62 1
  60   27   63 1
  61   27   64 1
  62   28   33 ar
  63   28   29 ar
  64   29   30 ar
  65   29   65 1
  66   30   31 ar
  67   30   66 1
  68   31   32 ar
  69   31   67 1
  70   32   33 ar
  71   32   68 1
  72   33   34 1

#	End of record

