#	Name: ASD00570010
#	Creating user name:	WinNT
#	Creation time:	15. 06. 2019 18:36

#	Modifying user name:	WinNT
#	Modification time:	15. 06. 2019 18:36

#	Program:	/corina/corina34_cracker 3.40 0067  02.08.2006

@<TRIPOS>MOLECULE
ASD00570010
  64   67    0    0    0
SMALL
NO_CHARGES


@<TRIPOS>ATOM
   1 C1             6.5621    -3.5957    -5.8910 C.ar    
   2 C2             6.1568    -4.4471    -4.8711 C.ar    
   3 C3             6.0949    -4.0076    -3.5683 C.ar    
   4 C4             6.4437    -2.6886    -3.2653 C.ar    
   5 C5             6.8558    -1.8248    -4.3060 C.ar    
   6 C6             6.9111    -2.2913    -5.6184 C.ar    
   7 N7             6.3959    -2.2173    -1.9971 N.2     
   8 C8             6.7224    -0.9809    -1.7127 C.2     
   9 N9             7.1307    -0.0813    -2.6586 N.am    
  10 C10            7.2163    -0.4435    -3.9595 C.2     
  11 C11            7.4633     1.2251    -2.2775 C.ar    
  12 C12            6.4725     2.0982    -1.8497 C.ar    
  13 C13            6.8041     3.3868    -1.4744 C.ar    
  14 C14            8.1219     3.8059    -1.5255 C.ar    
  15 C15            9.1102     2.9376    -1.9514 C.ar    
  16 C16            8.7856     1.6474    -2.3217 C.ar    
  17 Cl17           5.5663     4.4800    -0.9391 Cl      
  18 S18            6.6308    -0.4523    -0.0344 S.3     
  19 C19            5.9097    -1.9303     0.7217 C.3     
  20 C20            6.9059    -3.0597     0.6664 C.2     
  21 C21            5.5538    -1.6351     2.1802 C.3     
  22 N22            6.4776    -4.3375     0.6854 N.am    
  23 C23            7.4367    -5.4493     0.6321 C.3     
  24 C24            7.0466    -6.3822    -0.5187 C.3     
  25 C25            5.5894    -6.8168    -0.3463 C.3     
  26 C26            4.6797    -5.5870    -0.3918 C.3     
  27 C27            5.0432    -4.6452     0.7661 C.3     
  28 O28            8.0929    -2.8189     0.6047 O.2     
  29 C29            5.2124    -7.7617    -1.4581 C.2     
  30 N30            3.9682    -8.2772    -1.5115 N.am    
  31 O31            6.0285    -8.0582    -2.3048 O.2     
  32 O32            7.5782     0.3468    -4.8118 O.2     
  33 C33            3.1588    -1.1857     1.6286 C.3     
  34 C34            4.4343    -0.5935     2.2312 C.3     
  35 C35            4.1742    -0.1953     3.6854 C.3     
  36 H36            6.6084    -3.9610    -6.9063 H       
  37 H37            5.8865    -5.4666    -5.1033 H       
  38 H38            5.7779    -4.6787    -2.7839 H       
  39 H39            7.2254    -1.6346    -6.4161 H       
  40 H40            5.4439     1.7713    -1.8105 H       
  41 H41            8.3789     4.8132    -1.2326 H       
  42 H42           10.1378     3.2676    -1.9907 H       
  43 H43            9.5584     0.9699    -2.6538 H       
  44 H44            5.0085    -2.2137     0.1780 H       
  45 H45            5.2193    -2.5521     2.6653 H       
  46 H46            6.4324    -1.2500     2.6977 H       
  47 H47            8.4399    -5.0587     0.4618 H       
  48 H48            7.4113    -5.9993     1.5729 H       
  49 H49            7.1598    -5.8569    -1.4671 H       
  50 H50            7.6918    -7.2607    -0.5096 H       
  51 H51            5.4717    -7.3202     0.6133 H       
  52 H52            4.8151    -5.0693    -1.3414 H       
  53 H53            3.6402    -5.8995    -0.2924 H       
  54 H54            4.8212    -5.1313     1.7160 H       
  55 H55            4.4677    -3.7233     0.6817 H       
  56 H56            3.3155    -8.0400    -0.8343 H       
  57 H57            3.7255    -8.8854    -2.2271 H       
  58 H58            2.9193    -2.1219     2.1330 H       
  59 H59            2.3358    -0.4828     1.7573 H       
  60 H60            3.3126    -1.3745     0.5661 H       
  61 H61            4.7309     0.2868     1.6609 H       
  62 H62            3.8776    -1.0756     4.2557 H       
  63 H63            5.0829     0.2266     4.1147 H       
  64 H64            3.3766     0.5468     3.7217 H       
@<TRIPOS>BOND
   1    1    2 ar
   2    1    6 ar
   3    1   36 1
   4    2    3 ar
   5    2   37 1
   6    3    4 ar
   7    3   38 1
   8    4    5 ar
   9    4    7 1
  10    5    6 ar
  11    5   10 1
  12    6   39 1
  13    7    8 2
  14    8    9 1
  15    8   18 1
  16    9   10 am
  17    9   11 1
  18   10   32 2
  19   11   12 ar
  20   11   16 ar
  21   12   13 ar
  22   12   40 1
  23   13   14 ar
  24   13   17 1
  25   14   15 ar
  26   14   41 1
  27   15   16 ar
  28   15   42 1
  29   16   43 1
  30   18   19 1
  31   19   20 1
  32   19   21 1
  33   19   44 1
  34   20   22 am
  35   20   28 2
  36   21   34 1
  37   21   45 1
  38   21   46 1
  39   22   23 1
  40   22   27 1
  41   23   24 1
  42   23   47 1
  43   23   48 1
  44   24   25 1
  45   24   49 1
  46   24   50 1
  47   25   26 1
  48   25   29 1
  49   25   51 1
  50   26   27 1
  51   26   52 1
  52   26   53 1
  53   27   54 1
  54   27   55 1
  55   29   30 am
  56   29   31 2
  57   30   56 1
  58   30   57 1
  59   33   34 1
  60   33   58 1
  61   33   59 1
  62   33   60 1
  63   34   35 1
  64   34   61 1
  65   35   62 1
  66   35   63 1
  67   35   64 1

#	End of record

