#	Name: ASD09116019
#	Creating user name:	WinNT
#	Creation time:	15. 06. 2019 21:20

#	Modifying user name:	WinNT
#	Modification time:	15. 06. 2019 21:20

#	Program:	/corina/corina34_cracker 3.40 0067  02.08.2006

@<TRIPOS>MOLECULE
ASD09116019
  84   92    0    0    0
SMALL
NO_CHARGES


@<TRIPOS>ATOM
   1 C1             0.0724     1.3398    -0.2539 C.ar    
   2 C2             0.0864    -0.0506    -0.1730 C.ar    
   3 C3            -1.1046    -0.7240    -0.0493 C.ar    
   4 N4            -2.2317    -0.0118    -0.0112 N.ar    
   5 N5            -2.2480     1.2699    -0.0851 N.ar    
   6 C6            -1.1353     2.0006    -0.2013 C.ar    
   7 N7            -1.1345    -2.1175     0.0340 N.pl3   
   8 N8            -0.0311    -2.9856     0.0067 N.2     
   9 C9            -0.5011    -4.2056     0.1115 C.2     
  10 N10           -1.8352    -4.1526     0.2028 N.2     
  11 C11           -2.2324    -2.8987     0.1630 C.2     
  12 N12            0.2659    -5.3705     0.1250 N.pl3   
  13 C13           -0.3620    -6.6221     0.1295 C.ar    
  14 C14           -1.5881    -6.7860    -0.5018 C.ar    
  15 C15            0.2442    -7.7007     0.7602 C.ar    
  16 C16           -0.3758    -8.9363     0.7640 C.ar    
  17 C17           -1.6059    -9.0980     0.1363 C.ar    
  18 C18           -2.2082    -8.0203    -0.4978 C.ar    
  19 N19           -3.5404    -2.4578     0.2319 N.pl3   
  20 N20           -2.2352   -10.3502     0.1396 N.3     
  21 F21            0.2134    -9.9862     1.3770 F       
  22 C22           -3.5475   -10.2779     0.7947 C.3     
  23 C23           -1.3824   -11.3660     0.7698 C.3     
  24 C24           -2.0354   -12.7426     0.6262 C.3     
  25 C25           -3.4132   -12.7206     1.2937 C.3     
  26 C26           -4.2651   -11.6220     0.6519 C.3     
  27 N27           -4.0693   -14.0219     1.1083 N.3     
  28 C28           -3.3019   -15.0983     1.7611 C.3     
  29 C29           -5.4366   -14.0107     1.6708 C.3     
  30 C30           -5.6577   -15.4491     2.2015 C.3     
  31 C31           -4.2514   -15.7982     2.7561 C.3     
  32 C32            1.4442     1.9525    -0.3878 C.3     
  33 C33            2.2732     1.4936     0.8244 C.3     
  34 C34            2.2884    -0.0324     0.9138 C.3     
  35 C35            1.4707    -0.6463    -0.2358 C.3     
  36 C36            2.0979     1.3475    -1.6423 C.3     
  37 C37            2.1136    -0.1785    -1.5530 C.3     
  38 C38           -1.1995     3.4796    -0.2833 C.ar    
  39 C39           -0.4207     4.1616    -1.2170 C.ar    
  40 C40           -0.4827     5.5412    -1.2910 C.ar    
  41 C41           -1.3235     6.2473    -0.4321 C.ar    
  42 C42           -2.0974     5.5669     0.4963 C.ar    
  43 C43           -2.0429     4.1903     0.5692 C.ar    
  44 O44            0.1628     6.4324    -2.0993 O.3     
  45 C45           -0.5935     7.6539    -2.0054 C.3     
  46 O46           -1.2034     7.5797    -0.7034 O.3     
  47 H47            1.2342    -5.3136     0.1312 H       
  48 H48           -2.0572    -5.9479    -0.9957 H       
  49 H49            1.1998    -7.5743     1.2473 H       
  50 H50           -3.1638    -8.1458    -0.9851 H       
  51 H51           -4.2641    -3.0979     0.3176 H       
  52 H52           -3.7347    -1.5082     0.1945 H       
  53 H53           -3.4135   -10.0483     1.8518 H       
  54 H54           -4.1447    -9.4957     0.3261 H       
  55 H55           -0.4071   -11.3742     0.2831 H       
  56 H56           -1.2586   -11.1313     1.8270 H       
  57 H57           -2.1469   -12.9840    -0.4308 H       
  58 H58           -1.4097   -13.4942     1.1077 H       
  59 H59           -3.2990   -12.5177     2.3585 H       
  60 H60           -5.2325   -11.5730     1.1517 H       
  61 H61           -4.4117   -11.8458    -0.4048 H       
  62 H62           -2.9557   -15.8125     1.0140 H       
  63 H63           -2.4510   -14.6756     2.2954 H       
  64 H64           -5.5057   -13.2906     2.4861 H       
  65 H65           -6.1646   -13.7768     0.8940 H       
  66 H66           -6.4046   -15.4619     2.9953 H       
  67 H67           -5.9374   -16.1249     1.3933 H       
  68 H68           -4.0909   -16.8763     2.7487 H       
  69 H69           -4.1223   -15.3951     3.7606 H       
  70 H70            1.3880     3.0398    -0.4395 H       
  71 H71            3.2950     1.8589     0.7214 H       
  72 H72            1.8371     1.9037     1.7354 H       
  73 H73            3.3175    -0.3867     0.8535 H       
  74 H74            1.8592    -0.3419     1.8668 H       
  75 H75            1.4370    -1.7332    -0.1603 H       
  76 H76            1.5342     1.6511    -2.5245 H       
  77 H77            3.1208     1.7141    -1.7281 H       
  78 H78            3.1439    -0.5315    -1.5965 H       
  79 H79            1.5574    -0.5944    -2.3931 H       
  80 H80            0.2305     3.6132    -1.8815 H       
  81 H81           -2.7479     6.1160     1.1609 H       
  82 H82           -2.6472     3.6638     1.2931 H       
  83 H83            0.0666     8.5189    -2.0704 H       
  84 H84           -1.3556     7.6932    -2.7836 H       
@<TRIPOS>BOND
   1    1    2 ar
   2    1   32 1
   3    1    6 ar
   4    2    3 ar
   5    2   35 1
   6    3    4 ar
   7    3    7 1
   8    4    5 ar
   9    5    6 ar
  10    6   38 1
  11    7    8 1
  12    7   11 1
  13    8    9 2
  14    9   10 1
  15    9   12 1
  16   10   11 2
  17   11   19 1
  18   12   13 1
  19   12   47 1
  20   13   14 ar
  21   13   15 ar
  22   14   18 ar
  23   14   48 1
  24   15   16 ar
  25   15   49 1
  26   16   17 ar
  27   16   21 1
  28   17   18 ar
  29   17   20 1
  30   18   50 1
  31   19   51 1
  32   19   52 1
  33   20   22 1
  34   20   23 1
  35   22   26 1
  36   22   53 1
  37   22   54 1
  38   23   24 1
  39   23   55 1
  40   23   56 1
  41   24   25 1
  42   24   57 1
  43   24   58 1
  44   25   26 1
  45   25   27 1
  46   25   59 1
  47   26   60 1
  48   26   61 1
  49   27   28 1
  50   27   29 1
  51   28   31 1
  52   28   62 1
  53   28   63 1
  54   29   30 1
  55   29   64 1
  56   29   65 1
  57   30   31 1
  58   30   66 1
  59   30   67 1
  60   31   68 1
  61   31   69 1
  62   32   33 1
  63   32   36 1
  64   32   70 1
  65   33   34 1
  66   33   71 1
  67   33   72 1
  68   34   35 1
  69   34   73 1
  70   34   74 1
  71   35   37 1
  72   35   75 1
  73   36   37 1
  74   36   76 1
  75   36   77 1
  76   37   78 1
  77   37   79 1
  78   38   39 ar
  79   38   43 ar
  80   39   40 ar
  81   39   80 1
  82   40   41 ar
  83   40   44 1
  84   41   42 ar
  85   41   46 1
  86   42   43 ar
  87   42   81 1
  88   43   82 1
  89   44   45 1
  90   45   46 1
  91   45   83 1
  92   45   84 1

#	End of record

