#	Name: ASD00170381
#	Creating user name:	WinNT
#	Creation time:	15. 06. 2019 18:32

#	Modifying user name:	WinNT
#	Modification time:	15. 06. 2019 18:32

#	Program:	/corina/corina34_cracker 3.40 0067  02.08.2006

@<TRIPOS>MOLECULE
ASD00170381
  58   62    0    0    0
SMALL
NO_CHARGES


@<TRIPOS>ATOM
   1 C1             0.0146     1.3187    -0.0544 C.2     
   2 C2             0.0207    -0.0180    -0.0728 C.2     
   3 C3            -1.3188    -0.5769     0.0069 C.2     
   4 C4            -2.3005     0.3774     0.0880 C.2     
   5 S5            -1.6232     1.9391     0.0614 S.3     
   6 C6            -1.5925    -2.0139     0.0013 C.2     
   7 C7            -1.8396    -2.7141    -1.2768 C.ar    
   8 O8            -1.6168    -2.6333     1.0496 O.2     
   9 C9            -1.9832    -4.1036    -1.2961 C.ar    
  10 C10           -2.2138    -4.7548    -2.4869 C.ar    
  11 C11           -2.3036    -4.0276    -3.6741 C.ar    
  12 C12           -2.1603    -2.6400    -3.6559 C.ar    
  13 C13           -1.9354    -1.9863    -2.4654 C.ar    
  14 N14           -3.6515     0.1088     0.1739 N.pl3   
  15 C15            1.2652     2.1765    -0.1307 C.3     
  16 N16            2.4265     1.2897     0.0412 N.am    
  17 C17            2.4299     0.0111    -0.6858 C.3     
  18 C18            1.2850    -0.8578    -0.1598 C.3     
  19 C19            3.4551     1.6382     0.8394 C.2     
  20 O20            3.4302     2.8140     1.4948 O.3     
  21 C21            4.5719     3.1237     2.3368 C.3     
  22 C22           -2.5510    -4.7301    -4.9562 C.ar    
  23 C23           -2.6413    -4.0066    -6.1444 C.ar    
  24 C24           -2.8717    -4.6658    -7.3346 C.ar    
  25 C25           -3.0134    -6.0418    -7.3502 C.ar    
  26 C26           -2.9253    -6.7649    -6.1742 C.ar    
  27 C27           -2.6885    -6.1172    -4.9788 C.ar    
  28 O28            4.4048     0.8912     0.9675 O.2     
  29 C29            4.3682     4.4691     2.9845 C.ar    
  30 C30            3.7338     4.5575     4.2095 C.ar    
  31 C31            3.5469     5.7916     4.8036 C.ar    
  32 C32            3.9949     6.9372     4.1729 C.ar    
  33 C33            4.6301     6.8487     2.9483 C.ar    
  34 C34            4.8208     5.6142     2.3562 C.ar    
  35 H35           -1.9130    -4.6668    -0.3772 H       
  36 H36           -2.3248    -5.8289    -2.5020 H       
  37 H37           -2.2296    -2.0780    -4.5756 H       
  38 H38           -1.8246    -0.9121    -2.4515 H       
  39 H39           -3.9697    -0.8049     0.1044 H       
  40 H40           -4.2828     0.8337     0.3038 H       
  41 H41            1.3169     2.6690    -1.1017 H       
  42 H42            1.2500     2.9234     0.6630 H       
  43 H43            2.2888     0.1960    -1.7507 H       
  44 H44            3.3796    -0.4987    -0.5241 H       
  45 H45            1.5399    -1.2360     0.8302 H       
  46 H46            1.1207    -1.6943    -0.8391 H       
  47 H47            4.6719     2.3603     3.1084 H       
  48 H48            5.4763     3.1463     1.7287 H       
  49 H49           -2.5315    -2.9323    -6.1333 H       
  50 H50           -2.9418    -4.1063    -8.2558 H       
  51 H51           -3.1940    -6.5534    -8.2840 H       
  52 H52           -3.0371    -7.8390    -6.1922 H       
  53 H53           -2.6198    -6.6827    -4.0613 H       
  54 H54            3.3839     3.6624     4.7022 H       
  55 H55            3.0507     5.8607     5.7603 H       
  56 H56            3.8482     7.9015     4.6367 H       
  57 H57            4.9798     7.7438     2.4554 H       
  58 H58            5.3171     5.5451     1.3995 H       
@<TRIPOS>BOND
   1    1    2 2
   2    1   15 1
   3    1    5 1
   4    2    3 1
   5    2   18 1
   6    3    4 2
   7    3    6 1
   8    4    5 1
   9    4   14 1
  10    6    7 1
  11    6    8 2
  12    7    9 ar
  13    7   13 ar
  14    9   10 ar
  15    9   35 1
  16   10   11 ar
  17   10   36 1
  18   11   12 ar
  19   11   22 1
  20   12   13 ar
  21   12   37 1
  22   13   38 1
  23   14   39 1
  24   14   40 1
  25   15   16 1
  26   15   41 1
  27   15   42 1
  28   16   17 1
  29   16   19 am
  30   17   18 1
  31   17   43 1
  32   17   44 1
  33   18   45 1
  34   18   46 1
  35   19   20 1
  36   19   28 2
  37   20   21 1
  38   21   29 1
  39   21   47 1
  40   21   48 1
  41   22   23 ar
  42   22   27 ar
  43   23   24 ar
  44   23   49 1
  45   24   25 ar
  46   24   50 1
  47   25   26 ar
  48   25   51 1
  49   26   27 ar
  50   26   52 1
  51   27   53 1
  52   29   30 ar
  53   29   34 ar
  54   30   31 ar
  55   30   54 1
  56   31   32 ar
  57   31   55 1
  58   32   33 ar
  59   32   56 1
  60   33   34 ar
  61   33   57 1
  62   34   58 1

#	End of record

