#	Name: ASD04840001
#	Creating user name:	WinNT
#	Creation time:	15. 06. 2019 20:52

#	Modifying user name:	WinNT
#	Modification time:	15. 06. 2019 20:52

#	Program:	/corina/corina34_cracker 3.40 0067  02.08.2006

@<TRIPOS>MOLECULE
ASD04840001
  21   22    0    0    0
SMALL
NO_CHARGES


@<TRIPOS>ATOM
   1 C1            -0.0168     1.3850     0.0097 C.ar    
   2 C2             0.0021    -0.0041     0.0020 C.ar    
   3 C3            -1.1766    -0.7113     0.0095 C.ar    
   4 C4            -2.4029    -0.0402     0.0243 C.ar    
   5 C5            -2.4313     1.3570     0.0321 C.ar    
   6 C6            -1.2092     2.0635     0.0304 C.ar    
   7 Cl7            1.4779     2.2679     0.0001 Cl      
   8 S8            -4.0472    -0.6658     0.0360 S.3     
   9 C9            -4.7328     0.9474     0.0510 C.2     
  10 C10           -3.7916     1.8703     0.0473 C.2     
  11 C11           -4.1019     3.3450     0.0586 C.3     
  12 C12           -4.0968     3.8702    -1.3539 C.2     
  13 O13           -3.8651     3.1236    -2.2752 O.2     
  14 O14           -4.3498     5.1674    -1.5885 O.3     
  15 H15            0.9454    -0.5298    -0.0102 H       
  16 H16           -1.1552    -1.7911     0.0034 H       
  17 H17           -1.2129     3.1434     0.0367 H       
  18 H18           -5.7920     1.1584     0.0618 H       
  19 H19           -5.0841     3.5062     0.5028 H       
  20 H20           -3.3476     3.8705     0.6444 H       
  21 H21           -4.3355     5.4577    -2.5108 H       
@<TRIPOS>BOND
   1    1    2 ar
   2    1    7 1
   3    1    6 ar
   4    2    3 ar
   5    2   15 1
   6    3    4 ar
   7    3   16 1
   8    4    5 ar
   9    4    8 1
  10    5    6 ar
  11    5   10 1
  12    6   17 1
  13    8    9 1
  14    9   10 2
  15    9   18 1
  16   10   11 1
  17   11   12 1
  18   11   19 1
  19   11   20 1
  20   12   13 2
  21   12   14 1
  22   14   21 1

#	End of record

