#	Name: ASD01814423
#	Creating user name:	WinNT
#	Creation time:	15. 06. 2019 19:32

#	Modifying user name:	WinNT
#	Modification time:	15. 06. 2019 19:32

#	Program:	/corina/corina34_cracker 3.40 0067  02.08.2006

@<TRIPOS>MOLECULE
ASD01814423
  47   51    0    0    0
SMALL
NO_CHARGES


@<TRIPOS>ATOM
   1 C1            -0.0167     1.3818     0.0096 C.ar    
   2 C2             0.0021    -0.0041     0.0020 C.ar    
   3 C3             1.1970    -0.6935    -0.0127 C.ar    
   4 C4             2.3990     0.0036    -0.0204 C.ar    
   5 C5             2.3750     1.4118    -0.0131 C.ar    
   6 C6             1.1663     2.0939     0.0022 C.ar    
   7 N7             3.6103    -0.6575    -0.0347 N.pl3   
   8 N8             4.7456    -0.0608    -0.0419 N.2     
   9 C9             4.8828     1.2398    -0.0366 C.2     
  10 C10            3.6771     2.1039    -0.0219 C.2     
  11 C11            6.0123     2.1723    -0.0425 C.2     
  12 N12            5.4768     3.4119    -0.0316 N.am    
  13 N13            4.0816     3.3386    -0.0196 N.2     
  14 C14            3.5988    -2.1224    -0.0414 C.3     
  15 C15            3.5818    -2.6181    -1.4645 C.ar    
  16 C16            4.7711    -2.8548    -2.1281 C.ar    
  17 C17            4.7558    -3.3090    -3.4335 C.ar    
  18 C18            3.5505    -3.5271    -4.0755 C.ar    
  19 C19            2.3608    -3.2907    -3.4112 C.ar    
  20 C20            2.3768    -2.8414    -2.1041 C.ar    
  21 O21            7.1981     1.8866    -0.0544 O.2     
  22 C22            6.2491     4.6568    -0.0324 C.3     
  23 I23            3.5269    -4.2148    -6.0543 I       
  24 C24            5.8946     5.4780    -1.2749 C.3     
  25 O25            6.6055     6.7173    -1.2439 O.3     
  26 C26            6.2939     7.5408    -0.1184 C.3     
  27 C27            6.6644     6.8025     1.1705 C.3     
  28 C28            5.9109     5.4698     1.2210 C.3     
  29 H29           -0.9605     1.9069     0.0170 H       
  30 H30           -0.9294    -0.5506     0.0080 H       
  31 H31            1.1982    -1.7735    -0.0178 H       
  32 H32            1.1511     3.1738     0.0077 H       
  33 H33            4.4906    -2.4951     0.4625 H       
  34 H34            2.7107    -2.4812     0.4789 H       
  35 H35            5.7124    -2.6844    -1.6267 H       
  36 H36            5.6851    -3.4932    -3.9521 H       
  37 H37            1.4194    -3.4605    -3.9125 H       
  38 H38            1.4477    -2.6568    -1.5853 H       
  39 H39            7.3141     4.4248    -0.0408 H       
  40 H40            6.1728     4.9216    -2.1699 H       
  41 H41            4.8225     5.6742    -1.2872 H       
  42 H42            6.8597     8.4704    -0.1803 H       
  43 H43            5.2269     7.7640    -0.1156 H       
  44 H44            7.7380     6.6148     1.1870 H       
  45 H45            6.3868     7.4107     2.0314 H       
  46 H46            4.8379     5.6587     1.2545 H       
  47 H47            6.2125     4.9138     2.1087 H       
@<TRIPOS>BOND
   1    1    2 ar
   2    1    6 ar
   3    1   29 1
   4    2    3 ar
   5    2   30 1
   6    3    4 ar
   7    3   31 1
   8    4    5 ar
   9    4    7 1
  10    5    6 ar
  11    5   10 1
  12    6   32 1
  13    7    8 1
  14    7   14 1
  15    8    9 2
  16    9   10 1
  17    9   11 1
  18   10   13 2
  19   11   12 am
  20   11   21 2
  21   12   13 1
  22   12   22 1
  23   14   15 1
  24   14   33 1
  25   14   34 1
  26   15   16 ar
  27   15   20 ar
  28   16   17 ar
  29   16   35 1
  30   17   18 ar
  31   17   36 1
  32   18   19 ar
  33   18   23 1
  34   19   20 ar
  35   19   37 1
  36   20   38 1
  37   22   24 1
  38   22   28 1
  39   22   39 1
  40   24   25 1
  41   24   40 1
  42   24   41 1
  43   25   26 1
  44   26   27 1
  45   26   42 1
  46   26   43 1
  47   27   28 1
  48   27   44 1
  49   27   45 1
  50   28   46 1
  51   28   47 1

#	End of record

