#	Name: ASD01708009
#	Creating user name:	WinNT
#	Creation time:	15. 06. 2019 19:22

#	Modifying user name:	WinNT
#	Modification time:	15. 06. 2019 19:22

#	Program:	/corina/corina34_cracker 3.40 0067  02.08.2006

@<TRIPOS>MOLECULE
ASD01708009
  62   65    0    0    0
SMALL
NO_CHARGES


@<TRIPOS>ATOM
   1 C1            -0.0162     1.3409     0.0094 C.2     
   2 C2             0.0021    -0.0041     0.0020 C.2     
   3 C3             1.3313     1.7689    -0.0012 C.2     
   4 C4             2.0923     0.6599    -0.0144 C.2     
   5 O5             1.2819    -0.4111    -0.0124 O.3     
   6 C6             3.5989     0.6249    -0.0294 C.3     
   7 N7             4.1006     0.6065     1.3469 N.am    
   8 C8             5.4277     0.5745     1.5799 C.2     
   9 O9             6.2082     0.5610     0.6482 O.2     
  10 C10            5.9343     0.5559     2.9692 C.ar    
  11 C11            5.0275     0.5717     4.0422 C.ar    
  12 C12            7.2992     0.5172     3.2028 C.ar    
  13 C13            7.7741     0.4993     4.5227 C.ar    
  14 C14            6.8487     0.5210     5.5959 C.ar    
  15 C15            5.4700     0.5550     5.3270 C.ar    
  16 C16            9.1565     0.4595     4.7919 C.ar    
  17 C17            9.6026     0.4416     6.0739 C.ar    
  18 C18            8.6991     0.4622     7.1537 C.ar    
  19 C19            7.3266     0.5029     6.9229 C.ar    
  20 O20            6.4586     0.5231     7.9627 O.3     
  21 C21            9.2091     0.4411     8.5362 C.2     
  22 N22            9.4091    -0.7353     9.1628 N.am    
  23 O23            9.4496     1.4851     9.1116 O.2     
  24 Cl24          11.3096     0.3920     6.3862 Cl      
  25 C25            9.9161    -0.7563    10.5371 C.3     
  26 C26           11.4208    -0.6752    10.5187 C.2     
  27 O27           12.1073    -0.6788    11.6722 O.3     
  28 O28           12.0093    -0.6069     9.4657 O.2     
  29 C29            9.4837    -2.0551    11.2205 C.3     
  30 C30            7.9824    -2.0794    11.3490 C.ar    
  31 C31            7.2112    -2.6248    10.3401 C.ar    
  32 C32            5.8338    -2.6470    10.4580 C.ar    
  33 C33            5.2282    -2.1242    11.5850 C.ar    
  34 C34            5.9997    -1.5795    12.5947 C.ar    
  35 C35            7.3768    -1.5611    12.4788 C.ar    
  36 S36            4.8506    -3.3413     9.1712 S.o2    
  37 O37            5.6477    -3.1962     8.0039 O.2     
  38 C38            4.6900    -5.0919     9.6187 C.3     
  39 O39            3.5989    -2.6793     9.2906 O.2     
  40 H40           -0.8921     1.9727     0.0172 H       
  41 H41           -0.8653    -0.6475     0.0074 H       
  42 H42            1.6822     2.7903     0.0004 H       
  43 H43            3.9364    -0.2706    -0.5512 H       
  44 H44            3.9777     1.5089    -0.5424 H       
  45 H45            3.4778     0.6173     2.0904 H       
  46 H46            3.9662     0.5976     3.8436 H       
  47 H47            7.9925     0.5007     2.3749 H       
  48 H48            4.7615     0.5720     6.1420 H       
  49 H49            9.8635     0.4429     3.9756 H       
  50 H50            6.2321     1.4120     8.2687 H       
  51 H51            9.2173    -1.5680     8.7039 H       
  52 H52            9.5131     0.0948    11.0861 H       
  53 H53           13.0708    -0.6251    11.6098 H       
  54 H54            9.8111    -2.9062    10.6234 H       
  55 H55            9.9342    -2.1117    12.2114 H       
  56 H56            7.6844    -3.0333     9.4594 H       
  57 H57            4.1522    -2.1410    11.6768 H       
  58 H58            5.5264    -1.1706    13.4752 H       
  59 H59            7.9795    -1.1356    13.2675 H       
  60 H60            4.2051    -5.1753    10.5914 H       
  61 H61            4.0890    -5.6052     8.8680 H       
  62 H62            5.6792    -5.5472     9.6656 H       
@<TRIPOS>BOND
   1    1    2 2
   2    1    3 1
   3    1   40 1
   4    2    5 1
   5    2   41 1
   6    3    4 2
   7    3   42 1
   8    4    5 1
   9    4    6 1
  10    6    7 1
  11    6   43 1
  12    6   44 1
  13    7    8 am
  14    7   45 1
  15    8    9 2
  16    8   10 1
  17   10   11 ar
  18   10   12 ar
  19   11   15 ar
  20   11   46 1
  21   12   13 ar
  22   12   47 1
  23   13   14 ar
  24   13   16 ar
  25   14   15 ar
  26   14   19 ar
  27   15   48 1
  28   16   17 ar
  29   16   49 1
  30   17   18 ar
  31   17   24 1
  32   18   19 ar
  33   18   21 1
  34   19   20 1
  35   20   50 1
  36   21   22 am
  37   21   23 2
  38   22   25 1
  39   22   51 1
  40   25   26 1
  41   25   29 1
  42   25   52 1
  43   26   27 1
  44   26   28 2
  45   27   53 1
  46   29   30 1
  47   29   54 1
  48   29   55 1
  49   30   31 ar
  50   30   35 ar
  51   31   32 ar
  52   31   56 1
  53   32   33 ar
  54   32   36 1
  55   33   34 ar
  56   33   57 1
  57   34   35 ar
  58   34   58 1
  59   35   59 1
  60   36   37 2
  61   36   38 1
  62   36   39 2
  63   38   60 1
  64   38   61 1
  65   38   62 1

#	End of record

