#	Name: ASD00530006
#	Creating user name:	WinNT
#	Creation time:	15. 06. 2019 18:36

#	Modifying user name:	WinNT
#	Modification time:	15. 06. 2019 18:36

#	Program:	/corina/corina34_cracker 3.40 0067  02.08.2006

@<TRIPOS>MOLECULE
ASD00530006
  38   40    0    0    0
SMALL
NO_CHARGES


@<TRIPOS>ATOM
   1 S1            -0.0513     1.8209    -0.3858 S.3     
   2 C2            -0.0335     0.0097    -0.4853 C.3     
   3 C3            -1.4572    -0.5244    -0.3155 C.3     
   4 C4            -1.4422    -2.0520    -0.3994 C.3     
   5 C5            -2.8444    -2.5781    -0.2321 C.2     
   6 O6            -3.7652    -1.8071    -0.0625 O.2     
   7 N7            -3.0753    -3.9054    -0.2710 N.am    
   8 C8            -4.3681    -4.3904    -0.1168 C.2     
   9 S9            -5.8026    -3.4006     0.1355 S.3     
  10 C10           -6.7963    -4.8545     0.1966 C.2     
  11 C11           -5.9917    -5.9215     0.0279 C.2     
  12 N12           -4.7064    -5.6414    -0.1419 N.2     
  13 C13           -6.5068    -7.3093     0.0263 C.ar    
  14 C14           -7.6153    -7.6432    -0.7323 C.ar    
  15 C15           -8.1045    -8.9446    -0.7391 C.ar    
  16 C16           -7.5104    -9.9245    -0.0027 C.ar    
  17 C17           -6.3821    -9.6298     0.7822 C.ar    
  18 C18           -5.8671    -8.3108     0.7962 C.ar    
  19 C19           -4.7414    -8.0183     1.5792 C.ar    
  20 C20           -4.1573    -9.0042     2.3158 C.ar    
  21 C21           -4.6625   -10.3024     2.3032 C.ar    
  22 C22           -5.7505   -10.6231     1.5506 C.ar    
  23 H23            1.2436     2.1456    -0.5489 H       
  24 H24            0.3563    -0.2971    -1.4559 H       
  25 H25            0.6016    -0.3913     0.3046 H       
  26 H26           -1.8470    -0.2177     0.6551 H       
  27 H27           -2.0923    -0.1234    -1.1053 H       
  28 H28           -1.0524    -2.3588    -1.3700 H       
  29 H29           -0.8070    -2.4531     0.3905 H       
  30 H30           -2.3390    -4.5220    -0.4067 H       
  31 H31           -7.8658    -4.8849     0.3442 H       
  32 H32           -8.1056    -6.8848    -1.3247 H       
  33 H33           -8.9708    -9.1827    -1.3384 H       
  34 H34           -7.9069   -10.9289    -0.0217 H       
  35 H35           -4.3390    -7.0162     1.5980 H       
  36 H36           -3.2901    -8.7762     2.9177 H       
  37 H37           -4.1815   -11.0664     2.8959 H       
  38 H38           -6.1318   -11.6336     1.5506 H       
@<TRIPOS>BOND
   1    1    2 1
   2    1   23 1
   3    2    3 1
   4    2   24 1
   5    2   25 1
   6    3    4 1
   7    3   26 1
   8    3   27 1
   9    4    5 1
  10    4   28 1
  11    4   29 1
  12    5    6 2
  13    5    7 am
  14    7    8 1
  15    7   30 1
  16    8    9 1
  17    8   12 2
  18    9   10 1
  19   10   11 2
  20   10   31 1
  21   11   12 1
  22   11   13 1
  23   13   14 ar
  24   13   18 ar
  25   14   15 ar
  26   14   32 1
  27   15   16 ar
  28   15   33 1
  29   16   17 ar
  30   16   34 1
  31   17   18 ar
  32   17   22 ar
  33   18   19 ar
  34   19   20 ar
  35   19   35 1
  36   20   21 ar
  37   20   36 1
  38   21   22 ar
  39   21   37 1
  40   22   38 1

#	End of record

