#	Name: ASD08150582
#	Creating user name:	WinNT
#	Creation time:	15. 06. 2019 21:16

#	Modifying user name:	WinNT
#	Modification time:	15. 06. 2019 21:16

#	Program:	/corina/corina34_cracker 3.40 0067  02.08.2006

@<TRIPOS>MOLECULE
ASD08150582
  43   47    0    0    0
SMALL
NO_CHARGES


@<TRIPOS>ATOM
   1 N1            -0.1047     1.0724     1.9849 N.am    
   2 C2            -0.0064    -0.1841     2.4609 C.2     
   3 C3             1.2171    -0.8825     2.4130 C.2     
   4 C4             2.3195    -0.2936     1.8834 C.2     
   5 C5             2.2197     1.0282     1.3817 C.ar    
   6 C6             3.3325     1.6847     0.8217 C.ar    
   7 N7             3.2376     2.9038     0.3593 N.ar    
   8 C8             2.0881     3.5954     0.3896 C.ar    
   9 C9             0.9175     3.0134     0.9352 C.ar    
  10 C10            0.9867     1.6954     1.4441 C.ar    
  11 C11           -0.2983     5.0314     0.4548 C.ar    
  12 C12            0.8634     5.6002    -0.0843 C.ar    
  13 C13            2.0312     4.9036    -0.1180 C.ar    
  14 O14           -0.9889    -0.7243     2.9399 O.2     
  15 C15           -1.3333     1.7430     2.0387 C.ar    
  16 C16           -2.2385     1.6222     0.9913 C.ar    
  17 C17           -3.4504     2.2846     1.0472 C.ar    
  18 C18           -3.7618     3.0680     2.1455 C.ar    
  19 C19           -2.8606     3.1894     3.1903 C.ar    
  20 C20           -1.6511     2.5248     3.1414 C.ar    
  21 C21           -0.2751     3.7433     0.9629 C.ar    
  22 C22           -1.5603     5.8126     0.4799 C.2     
  23 C23           -1.6738     7.1544     0.7011 C.2     
  24 Cl24          -1.8475     0.6408    -0.3863 Cl      
  25 F25           -4.9464     3.7154     2.1980 F       
  26 N26           -2.9838     7.4681     0.6415 N.pl3   
  27 N27           -3.7029     6.2962     0.3773 N.2     
  28 C28           -2.8579     5.3049     0.2737 C.2     
  29 C29           -3.5561     8.8045     0.8227 C.3     
  30 H30            1.2777    -1.8892     2.7992 H       
  31 H31            3.2592    -0.8245     1.8452 H       
  32 H32            4.2817     1.1719     0.7737 H       
  33 H33            0.8310     6.6052    -0.4786 H       
  34 H34            2.9173     5.3579    -0.5361 H       
  35 H35           -4.1545     2.1913     0.2336 H       
  36 H36           -3.1057     3.8013     4.0457 H       
  37 H37           -0.9490     2.6201     3.9565 H       
  38 H38           -1.1713     3.3056     1.3770 H       
  39 H39           -0.8615     7.8406     0.8900 H       
  40 H40           -3.1110     4.2744     0.0726 H       
  41 H41           -3.6103     9.3103    -0.1413 H       
  42 H42           -4.5576     8.7168     1.2439 H       
  43 H43           -2.9260     9.3807     1.5004 H       
@<TRIPOS>BOND
   1    1    2 am
   2    1   10 1
   3    1   15 1
   4    2    3 1
   5    2   14 2
   6    3    4 2
   7    3   30 1
   8    4    5 1
   9    4   31 1
  10    5    6 ar
  11    5   10 ar
  12    6    7 ar
  13    6   32 1
  14    7    8 ar
  15    8    9 ar
  16    8   13 ar
  17    9   10 ar
  18    9   21 ar
  19   11   12 ar
  20   11   22 1
  21   11   21 ar
  22   12   13 ar
  23   12   33 1
  24   13   34 1
  25   15   16 ar
  26   15   20 ar
  27   16   17 ar
  28   16   24 1
  29   17   18 ar
  30   17   35 1
  31   18   19 ar
  32   18   25 1
  33   19   20 ar
  34   19   36 1
  35   20   37 1
  36   21   38 1
  37   22   23 2
  38   22   28 1
  39   23   26 1
  40   23   39 1
  41   26   27 1
  42   26   29 1
  43   27   28 2
  44   28   40 1
  45   29   41 1
  46   29   42 1
  47   29   43 1

#	End of record

