#	Name: ASD00170288
#	Creating user name:	WinNT
#	Creation time:	15. 06. 2019 18:31

#	Modifying user name:	WinNT
#	Modification time:	15. 06. 2019 18:31

#	Program:	/corina/corina34_cracker 3.40 0067  02.08.2006

@<TRIPOS>MOLECULE
ASD00170288
  26   27    0    0    0
SMALL
NO_CHARGES


@<TRIPOS>ATOM
   1 C1            -0.0188     1.3631    -0.1754 C.2     
   2 C2             0.0064     0.0016     0.0018 C.2     
   3 C3            -1.3111    -0.5603     0.2070 C.2     
   4 C4            -2.2750     0.3480     0.1830 C.2     
   5 S5            -1.6160     1.9515    -0.0867 S.3     
   6 C6             1.2359    -0.7968    -0.0156 C.2     
   7 C7             1.9266    -1.1069     1.2402 C.2     
   8 O8             1.6841    -1.2029    -1.0743 O.2     
   9 N9             1.0976     2.1487    -0.3902 N.pl3   
  10 S10            1.4766    -0.5006     2.8281 S.3     
  11 C11            2.7611    -1.3463     3.5670 C.2     
  12 C12            3.4679    -2.0324     2.6587 C.2     
  13 C13            3.0196    -1.9182     1.3643 C.2     
  14 C14           -1.5614    -2.0302     0.4259 C.3     
  15 C15           -3.7397     0.0455     0.3682 C.3     
  16 Cl16           3.1064    -1.3208     5.2681 Cl      
  17 H17            1.9829     1.7542    -0.3517 H       
  18 H18            0.9959     3.0946    -0.5794 H       
  19 H19            4.3245    -2.6341     2.9246 H       
  20 H20            3.4888    -2.4142     0.5275 H       
  21 H21           -1.5209    -2.2508     1.4926 H       
  22 H22           -2.5454    -2.2930     0.0377 H       
  23 H23           -0.7989    -2.6100    -0.0943 H       
  24 H24           -3.9922     0.1062     1.4268 H       
  25 H25           -4.3336     0.7700    -0.1890 H       
  26 H26           -3.9527    -0.9583     0.0008 H       
@<TRIPOS>BOND
   1    1    2 2
   2    1    9 1
   3    1    5 1
   4    2    3 1
   5    2    6 1
   6    3    4 2
   7    3   14 1
   8    4    5 1
   9    4   15 1
  10    6    7 1
  11    6    8 2
  12    7   10 1
  13    7   13 2
  14    9   17 1
  15    9   18 1
  16   10   11 1
  17   11   12 2
  18   11   16 1
  19   12   13 1
  20   12   19 1
  21   13   20 1
  22   14   21 1
  23   14   22 1
  24   14   23 1
  25   15   24 1
  26   15   25 1
  27   15   26 1

#	End of record

