#	Name: ASD02198428
#	Creating user name:	WinNT
#	Creation time:	15. 06. 2019 20:19

#	Modifying user name:	WinNT
#	Modification time:	15. 06. 2019 20:19

#	Program:	/corina/corina34_cracker 3.40 0067  02.08.2006

@<TRIPOS>MOLECULE
ASD02198428
  39   41    0    0    0
SMALL
NO_CHARGES


@<TRIPOS>ATOM
   1 C1            -0.2006     1.9205     0.1503 C.3     
   2 S2            -0.0366     0.1153     0.0794 S.o2    
   3 N3            -1.5957    -0.4391     0.0149 N.am    
   4 C4            -2.4371    -0.0343    -1.0202 C.ar    
   5 C5            -3.8114     0.1820    -0.7741 C.ar    
   6 C6            -4.6485     0.5935    -1.8400 C.ar    
   7 C7            -4.1062     0.7800    -3.1210 C.ar    
   8 C8            -2.7635     0.5616    -3.3333 C.ar    
   9 C9            -1.9316     0.1618    -2.2854 C.ar    
  10 N10           -4.3267     0.0033     0.4453 N.ar    
  11 C11           -5.6004     0.2011     0.6835 C.ar    
  12 C12           -6.4790     0.6063    -0.3191 C.ar    
  13 C13           -6.0177     0.8076    -1.5885 C.ar    
  14 O14            0.5294    -0.2856    -1.1608 O.2     
  15 O15            0.4639    -0.3887     1.3102 O.2     
  16 C16            1.1685     2.5472     0.2128 C.ar    
  17 C17            1.8281     2.8845    -0.9543 C.ar    
  18 O18           -2.2411     0.7429    -4.5746 O.3     
  19 C19           -3.1418     1.1585    -5.6032 C.3     
  20 C20            1.7623     2.7899     1.4372 C.ar    
  21 C21            3.0182     3.3648     1.4945 C.ar    
  22 C22            3.6804     3.6965     0.3273 C.ar    
  23 C23            3.0840     3.4593    -0.8970 C.ar    
  24 H24           -0.7214     2.2732    -0.7398 H       
  25 H25           -0.7685     2.1991     1.0380 H       
  26 H26           -1.9235    -1.0454     0.6975 H       
  27 H27           -4.7400     1.0933    -3.9374 H       
  28 H28           -0.8808    -0.0041    -2.4718 H       
  29 H29           -5.9787     0.0455     1.6830 H       
  30 H30           -7.5235     0.7613    -0.0924 H       
  31 H31           -6.6844     1.1216    -2.3780 H       
  32 H32            1.3625     2.6986    -1.9108 H       
  33 H33           -3.9270     0.4118    -5.7221 H       
  34 H34           -3.5882     2.1148    -5.3307 H       
  35 H35           -2.5974     1.2657    -6.5414 H       
  36 H36            1.2450     2.5308     2.3491 H       
  37 H37            3.4818     3.5551     2.4512 H       
  38 H38            4.6614     4.1460     0.3721 H       
  39 H39            3.6013     3.7185    -1.8089 H       
@<TRIPOS>BOND
   1    1    2 1
   2    1   16 1
   3    1   24 1
   4    1   25 1
   5    2    3 am
   6    2   14 2
   7    2   15 2
   8    3    4 1
   9    3   26 1
  10    4    5 ar
  11    4    9 ar
  12    5    6 ar
  13    5   10 ar
  14    6    7 ar
  15    6   13 ar
  16    7    8 ar
  17    7   27 1
  18    8    9 ar
  19    8   18 1
  20    9   28 1
  21   10   11 ar
  22   11   12 ar
  23   11   29 1
  24   12   13 ar
  25   12   30 1
  26   13   31 1
  27   16   17 ar
  28   16   20 ar
  29   17   23 ar
  30   17   32 1
  31   18   19 1
  32   19   33 1
  33   19   34 1
  34   19   35 1
  35   20   21 ar
  36   20   36 1
  37   21   22 ar
  38   21   37 1
  39   22   23 ar
  40   22   38 1
  41   23   39 1

#	End of record

