#	Name: ASD01816848
#	Creating user name:	WinNT
#	Creation time:	15. 06. 2019 19:36

#	Modifying user name:	WinNT
#	Modification time:	15. 06. 2019 19:36

#	Program:	/corina/corina34_cracker 3.40 0067  02.08.2006

@<TRIPOS>MOLECULE
ASD01816848
  65   69    0    0    0
SMALL
NO_CHARGES


@<TRIPOS>ATOM
   1 C1            -0.0168     1.3862     0.0097 C.ar    
   2 C2             0.0021    -0.0041     0.0020 C.ar    
   3 C3             1.1788    -0.6915    -0.0124 C.ar    
   4 C4             2.3984     0.0027    -0.0198 C.ar    
   5 C5             2.4007     1.4214    -0.0127 C.ar    
   6 C6             1.1612     2.1100     0.0023 C.ar    
   7 C7             3.6279    -0.6840    -0.0337 C.ar    
   8 C8             4.7780     0.0507    -0.0399 C.ar    
   9 C9             4.7102     1.4520    -0.0324 C.ar    
  10 N10            3.5528     2.0858    -0.0188 N.ar    
  11 C11            5.9665     2.2381    -0.0387 C.2     
  12 N12            5.9187     3.5850    -0.0316 N.am    
  13 O13            7.0397     1.6683    -0.0504 O.2     
  14 C14            7.1606     4.3621    -0.0380 C.3     
  15 C15            7.6479     4.5332    -1.4782 C.3     
  16 C16            6.9046     5.7378     0.5806 C.3     
  17 C17            8.2016     6.5494     0.5741 C.3     
  18 C18            8.6888     6.7205    -0.8662 C.3     
  19 C19            8.9449     5.3447    -1.4848 C.3     
  20 O20            6.4495     5.5780     1.9258 O.3     
  21 C21            3.6724    -2.1903    -0.0411 C.3     
  22 C22            3.5511    -2.6896    -1.4578 C.ar    
  23 C23            4.6876    -2.8824    -2.2213 C.ar    
  24 C24            2.3039    -2.9594    -1.9901 C.ar    
  25 C25            2.1900    -3.4175    -3.2883 C.ar    
  26 C26            3.3285    -3.6068    -4.0582 C.ar    
  27 C27            4.5791    -3.3400    -3.5202 C.ar    
  28 O28            3.2191    -4.0578    -5.3355 O.3     
  29 C29            4.4334    -4.2294    -6.0691 C.3     
  30 C30            1.1287     3.5915     0.0096 C.2     
  31 C31            1.8496     4.4369     0.8773 C.2     
  32 N32            1.5576     5.6735     0.5740 N.2     
  33 N33            0.6471     5.6687    -0.4895 N.pl3   
  34 C34            0.3991     4.3877    -0.8273 C.2     
  35 C35            0.0677     6.8527    -1.1289 C.3     
  36 H36           -0.9629     1.9070     0.0169 H       
  37 H37           -0.9309    -0.5480     0.0080 H       
  38 H38            1.1726    -1.7715    -0.0178 H       
  39 H39            5.7375    -0.4451    -0.0502 H       
  40 H40            5.0620     4.0399    -0.0224 H       
  41 H41            7.9199     3.8382     0.5427 H       
  42 H42            7.8303     3.5531    -1.9189 H       
  43 H43            6.8885     5.0570    -2.0588 H       
  44 H44            6.1452     6.2616     0.0000 H       
  45 H45            8.0191     7.5295     1.0148 H       
  46 H46            8.9609     6.0255     1.1547 H       
  47 H47            7.9295     7.2443    -1.4468 H       
  48 H48            9.6128     7.2986    -0.8709 H       
  49 H49            9.7042     4.8209    -0.9041 H       
  50 H50            9.2920     5.4666    -2.5108 H       
  51 H51            6.2669     6.4115     2.3809 H       
  52 H52            4.6179    -2.5280     0.3834 H       
  53 H53            2.8469    -2.5811     0.5538 H       
  54 H54            5.6610    -2.6748    -1.8019 H       
  55 H55            1.4179    -2.8122    -1.3902 H       
  56 H56            1.2156    -3.6285    -3.7035 H       
  57 H57            5.4669    -3.4865    -4.1176 H       
  58 H58            4.9535    -3.2740    -6.1394 H       
  59 H59            5.0685    -4.9520    -5.5567 H       
  60 H60            4.2044    -4.5929    -7.0709 H       
  61 H61            2.5255     4.1178     1.6569 H       
  62 H62           -0.2621     4.0514    -1.6122 H       
  63 H63            0.7042     7.1671    -1.9560 H       
  64 H64           -0.9262     6.6121    -1.5063 H       
  65 H65           -0.0061     7.6598    -0.4000 H       
@<TRIPOS>BOND
   1    1    2 ar
   2    1    6 ar
   3    1   36 1
   4    2    3 ar
   5    2   37 1
   6    3    4 ar
   7    3   38 1
   8    4    5 ar
   9    4    7 ar
  10    5    6 ar
  11    5   10 ar
  12    6   30 1
  13    7    8 ar
  14    7   21 1
  15    8    9 ar
  16    8   39 1
  17    9   10 ar
  18    9   11 1
  19   11   12 am
  20   11   13 2
  21   12   14 1
  22   12   40 1
  23   14   15 1
  24   14   16 1
  25   14   41 1
  26   15   19 1
  27   15   42 1
  28   15   43 1
  29   16   17 1
  30   16   20 1
  31   16   44 1
  32   17   18 1
  33   17   45 1
  34   17   46 1
  35   18   19 1
  36   18   47 1
  37   18   48 1
  38   19   49 1
  39   19   50 1
  40   20   51 1
  41   21   22 1
  42   21   52 1
  43   21   53 1
  44   22   23 ar
  45   22   24 ar
  46   23   27 ar
  47   23   54 1
  48   24   25 ar
  49   24   55 1
  50   25   26 ar
  51   25   56 1
  52   26   27 ar
  53   26   28 1
  54   27   57 1
  55   28   29 1
  56   29   58 1
  57   29   59 1
  58   29   60 1
  59   30   31 1
  60   30   34 2
  61   31   32 2
  62   31   61 1
  63   32   33 1
  64   33   34 1
  65   33   35 1
  66   34   62 1
  67   35   63 1
  68   35   64 1
  69   35   65 1

#	End of record

