#	Name: ASD06170097
#	Creating user name:	WinNT
#	Creation time:	15. 06. 2019 21:05

#	Modifying user name:	WinNT
#	Modification time:	15. 06. 2019 21:05

#	Program:	/corina/corina34_cracker 3.40 0067  02.08.2006

@<TRIPOS>MOLECULE
ASD06170097
  70   75    0    0    0
SMALL
NO_CHARGES


@<TRIPOS>ATOM
   1 N1             0.1146     1.7734    -0.0574 N.pl3   
   2 N2             0.0281     0.3954     0.1619 N.am    
   3 C3             1.2644    -0.0760     0.4255 C.2     
   4 C4             2.1738     1.0793     0.3664 C.2     
   5 C5             1.3931     2.1781     0.0649 C.2     
   6 C6             3.6252     1.0667     0.5857 C.2     
   7 O7             4.2615     2.1010     0.5066 O.2     
   8 N8             4.2530    -0.0903     0.8747 N.am    
   9 C9            -1.1438    -0.3667     0.1161 C.ar    
  10 C10           -2.0551    -0.1806    -0.9153 C.ar    
  11 C11           -3.2111    -0.9351    -0.9579 C.ar    
  12 C12           -3.4619    -1.8747     0.0252 C.ar    
  13 C13           -2.5566    -2.0625     1.0535 C.ar    
  14 C14           -1.3960    -1.3152     1.0988 C.ar    
  15 O15            1.5678    -1.2298     0.6655 O.2     
  16 C16            1.8888     3.5916    -0.1001 C.3     
  17 C17            5.6519    -0.1361     0.9178 C.ar    
  18 C18            6.3745     1.0048     1.2421 C.ar    
  19 C19            7.7553     0.9586     1.2849 C.ar    
  20 C20            8.4192    -0.2294     1.0032 C.ar    
  21 C21            7.6969    -1.3677     0.6795 C.ar    
  22 C22            6.3166    -1.3233     0.6418 C.ar    
  23 O23            9.7778    -0.2753     1.0446 O.3     
  24 N24           11.5830    -0.2198     4.7524 N.ar    
  25 C25           10.2815    -0.0851     4.6498 C.ar    
  26 C26            9.6387    -0.0986     3.4186 C.ar    
  27 C27           10.3783    -0.2578     2.2597 C.ar    
  28 C28           11.7791    -0.4020     2.3821 C.ar    
  29 C29           12.5946    -0.5670     1.2530 C.ar    
  30 C30           13.9404    -0.7028     1.4035 C.ar    
  31 C31           14.5238    -0.6801     2.6736 C.ar    
  32 C32           13.7503    -0.5203     3.8010 C.ar    
  33 C33           12.3594    -0.3775     3.6738 C.ar    
  34 O34           15.8695    -0.8177     2.7968 O.3     
  35 C35           16.6180    -0.9807     1.5904 C.3     
  36 F36            8.4592     2.0679     1.5998 F       
  37 C37           -1.0170     2.6467    -0.3788 C.3     
  38 C38           -1.5554     3.2583     0.8889 C.ar    
  39 C39           -1.0526     4.4634     1.3427 C.ar    
  40 C40           -1.5465     5.0244     2.5056 C.ar    
  41 C41           -2.5435     4.3805     3.2144 C.ar    
  42 C42           -3.0469     3.1759     2.7601 C.ar    
  43 C43           -2.5561     2.6171     1.5949 C.ar    
  44 H44            3.7359    -0.8914     1.0528 H       
  45 H45           -1.8602     0.5535    -1.6831 H       
  46 H46           -3.9202    -0.7909    -1.7597 H       
  47 H47           -4.3670    -2.4630    -0.0100 H       
  48 H48           -2.7554    -2.7971     1.8198 H       
  49 H49           -0.6874    -1.4652     1.8999 H       
  50 H50            1.8588     4.1019     0.8626 H       
  51 H51            2.9135     3.5763    -0.4714 H       
  52 H52            1.2527     4.1190    -0.8110 H       
  53 H53            5.8578     1.9277     1.4605 H       
  54 H54            8.2133    -2.2906     0.4607 H       
  55 H55            5.7545    -2.2115     0.3936 H       
  56 H56            9.6941     0.0398     5.5474 H       
  57 H57            8.5659     0.0139     3.3659 H       
  58 H58           12.1556    -0.5866     0.2665 H       
  59 H59           14.5648    -0.8300     0.5316 H       
  60 H60           14.2107    -0.5048     4.7779 H       
  61 H61           16.2784    -1.8763     1.0702 H       
  62 H62           16.4699    -0.1107     0.9506 H       
  63 H63           17.6767    -1.0793     1.8303 H       
  64 H64           -0.6858     3.4377    -1.0517 H       
  65 H65           -1.8006     2.0630    -0.8619 H       
  66 H66           -0.2737     4.9664     0.7889 H       
  67 H67           -1.1532     5.9655     2.8605 H       
  68 H68           -2.9288     4.8185     4.1233 H       
  69 H69           -3.8256     2.6727     3.3141 H       
  70 H70           -2.9519     1.6778     1.2380 H       
@<TRIPOS>BOND
   1    1    2 1
   2    1    5 1
   3    1   37 1
   4    2    3 am
   5    2    9 1
   6    3    4 1
   7    3   15 2
   8    4    5 2
   9    4    6 1
  10    5   16 1
  11    6    7 2
  12    6    8 am
  13    8   17 1
  14    8   44 1
  15    9   10 ar
  16    9   14 ar
  17   10   11 ar
  18   10   45 1
  19   11   12 ar
  20   11   46 1
  21   12   13 ar
  22   12   47 1
  23   13   14 ar
  24   13   48 1
  25   14   49 1
  26   16   50 1
  27   16   51 1
  28   16   52 1
  29   17   18 ar
  30   17   22 ar
  31   18   19 ar
  32   18   53 1
  33   19   20 ar
  34   19   36 1
  35   20   21 ar
  36   20   23 1
  37   21   22 ar
  38   21   54 1
  39   22   55 1
  40   23   27 1
  41   24   25 ar
  42   24   33 ar
  43   25   26 ar
  44   25   56 1
  45   26   27 ar
  46   26   57 1
  47   27   28 ar
  48   28   29 ar
  49   28   33 ar
  50   29   30 ar
  51   29   58 1
  52   30   31 ar
  53   30   59 1
  54   31   32 ar
  55   31   34 1
  56   32   33 ar
  57   32   60 1
  58   34   35 1
  59   35   61 1
  60   35   62 1
  61   35   63 1
  62   37   38 1
  63   37   64 1
  64   37   65 1
  65   38   39 ar
  66   38   43 ar
  67   39   40 ar
  68   39   66 1
  69   40   41 ar
  70   40   67 1
  71   41   42 ar
  72   41   68 1
  73   42   43 ar
  74   42   69 1
  75   43   70 1

#	End of record

