#	Name: ASD01916737
#	Creating user name:	WinNT
#	Creation time:	15. 06. 2019 20:07

#	Modifying user name:	WinNT
#	Modification time:	15. 06. 2019 20:07

#	Program:	/corina/corina34_cracker 3.40 0067  02.08.2006

@<TRIPOS>MOLECULE
ASD01916737
  34   36    0    0    0
SMALL
NO_CHARGES


@<TRIPOS>ATOM
   1 S1            -0.0211     1.7022     0.0114 S.3     
   2 C2             0.0021    -0.0041     0.0020 C.2     
   3 N3             1.1984    -0.4572    -0.0118 N.2     
   4 C4             2.2084     0.4336    -0.0167 C.ar    
   5 C5             1.7390     1.7516    -0.0051 C.ar    
   6 C6             2.6374     2.8173    -0.0084 C.ar    
   7 C7             3.9936     2.5733    -0.0231 C.ar    
   8 C8             4.4647     1.2683    -0.0346 C.ar    
   9 C9             3.6009     0.2152    -0.0319 C.ar    
  10 C10           -1.2321    -0.8688     0.0092 C.3     
  11 C11           -1.6363    -1.1687     1.4540 C.3     
  12 C12           -2.8418    -2.0134     1.4610 C.1     
  13 C13           -3.8033    -2.6871     1.4665 C.1     
  14 C14           -4.9760    -3.5088     1.4733 C.ar    
  15 C15           -5.5318    -3.9122     2.6880 C.ar    
  16 C16           -6.6649    -4.7060     2.6778 C.ar    
  17 C17           -7.2071    -5.0717     1.4534 C.ar    
  18 C18           -6.6051    -4.6365     0.2872 C.ar    
  19 N19           -5.5295    -3.8767     0.3235 N.ar    
  20 C20            4.1375    -1.1929    -0.0446 C.3     
  21 Cl21           2.0485     4.4503     0.0054 Cl      
  22 H22            4.6903     3.3985    -0.0260 H       
  23 H23            5.5290     1.0854    -0.0460 H       
  24 H24           -2.0451    -0.3459    -0.4945 H       
  25 H25           -1.0238    -1.8036    -0.5113 H       
  26 H26           -0.8234    -1.6917     1.9577 H       
  27 H27           -1.8447    -0.2340     1.9745 H       
  28 H28           -5.0836    -3.6094     3.6228 H       
  29 H29           -7.1173    -5.0341     3.6020 H       
  30 H30           -8.0910    -5.6910     1.4121 H       
  31 H31           -7.0249    -4.9201    -0.6666 H       
  32 H32            4.2565    -1.5271    -1.0753 H       
  33 H33            5.1036    -1.2181     0.4594 H       
  34 H34            3.4405    -1.8521     0.4729 H       
@<TRIPOS>BOND
   1    1    2 1
   2    1    5 1
   3    2    3 2
   4    2   10 1
   5    3    4 1
   6    4    5 ar
   7    4    9 ar
   8    5    6 ar
   9    6    7 ar
  10    6   21 1
  11    7    8 ar
  12    7   22 1
  13    8    9 ar
  14    8   23 1
  15    9   20 1
  16   10   11 1
  17   10   24 1
  18   10   25 1
  19   11   12 1
  20   11   26 1
  21   11   27 1
  22   12   13 3
  23   13   14 1
  24   14   15 ar
  25   14   19 ar
  26   15   16 ar
  27   15   28 1
  28   16   17 ar
  29   16   29 1
  30   17   18 ar
  31   17   30 1
  32   18   19 ar
  33   18   31 1
  34   20   32 1
  35   20   33 1
  36   20   34 1

#	End of record

