#	Name: ASD05740213
#	Creating user name:	WinNT
#	Creation time:	15. 06. 2019 21:03

#	Modifying user name:	WinNT
#	Modification time:	15. 06. 2019 21:03

#	Program:	/corina/corina34_cracker 3.40 0067  02.08.2006

@<TRIPOS>MOLECULE
ASD05740213
  64   68    0    0    0
SMALL
NO_CHARGES


@<TRIPOS>ATOM
   1 C1             0.3020     0.6086    -2.0300 C.3     
   2 N2            -0.5095     1.2096    -0.9624 N.3     
   3 C3            -1.7317     0.5420    -0.8253 C.ar    
   4 C4            -2.6464     0.9579     0.1334 C.ar    
   5 C5            -3.8522     0.2991     0.2687 C.ar    
   6 C6            -4.1502    -0.7795    -0.5536 C.ar    
   7 C7            -3.2355    -1.1957    -1.5119 C.ar    
   8 C8            -2.0324    -0.5328    -1.6517 C.ar    
   9 N9            -5.3734    -1.4481    -0.4160 N.pl3   
  10 C10           -6.5163    -0.7393    -0.1014 C.ar    
  11 N11           -6.4363     0.5814     0.0194 N.ar    
  12 N12           -7.6520    -1.4016     0.0633 N.ar    
  13 C13           -8.7691    -0.7530     0.3661 C.ar    
  14 C14           -8.7210     0.6514     0.5081 C.ar    
  15 C15           -7.4990     1.3066     0.3189 C.ar    
  16 N16           -9.9593    -1.4103     0.5422 N.am    
  17 C17          -11.0824    -0.7368     0.8485 C.2     
  18 C18          -11.0904     0.6644     1.0014 C.2     
  19 C19           -9.9438     1.3757     0.8411 C.2     
  20 C20          -10.0085    -2.8669     0.3943 C.3     
  21 O21          -12.1221    -1.3551     0.9976 O.2     
  22 C22          -10.6259    -3.4765     1.6265 C.ar    
  23 C23           -9.8798    -3.6025     2.7831 C.ar    
  24 C24            0.2271     1.2262     0.3092 C.3     
  25 C25            1.5172     2.0317     0.1378 C.3     
  26 N26            2.3287     1.4306    -0.9298 N.3     
  27 C27            1.5921     1.4140    -2.2013 C.3     
  28 C28            3.6117     2.1315    -1.0737 C.3     
  29 C29          -10.4461    -4.1617     3.9136 C.ar    
  30 C30          -11.7585    -4.5944     3.8872 C.ar    
  31 C31          -12.5052    -4.4675     2.7306 C.ar    
  32 C32          -11.9403    -3.9044     1.6017 C.ar    
  33 C33           -8.4488    -3.1308     2.8118 C.3     
  34 F34           -7.9069    -3.3621     4.0807 F       
  35 F35           -7.7077    -3.8307     1.8536 F       
  36 F36           -8.4033    -1.7617     2.5278 F       
  37 C37          -10.8523    -3.2270    -0.8302 C.3     
  38 H38            0.5478    -0.4197    -1.7648 H       
  39 H39           -0.2600     0.6193    -2.9638 H       
  40 H40           -2.4143     1.7963     0.7734 H       
  41 H41           -4.5636     0.6225     1.0142 H       
  42 H42           -3.4670    -2.0350    -2.1509 H       
  43 H43           -1.3209    -0.8565    -2.3971 H       
  44 H44           -5.4178    -2.4089    -0.5417 H       
  45 H45           -7.4256     2.3794     0.4199 H       
  46 H46          -12.0103     1.1740     1.2470 H       
  47 H47           -9.9375     2.4495     0.9561 H       
  48 H48           -8.9975    -3.2534     0.2653 H       
  49 H49           -0.3897     1.6872     1.0807 H       
  50 H50            0.4720     0.2049     0.6009 H       
  51 H51            1.2714     3.0600    -0.1273 H       
  52 H52            2.0793     2.0210     1.0717 H       
  53 H53            2.2089     0.9531    -2.9728 H       
  54 H54            1.3472     2.4353    -2.4930 H       
  55 H55            4.1660     2.0707    -0.1371 H       
  56 H56            4.1924     1.6664    -1.8703 H       
  57 H57            3.4288     3.1773    -1.3204 H       
  58 H58           -9.8629    -4.2609     4.8171 H       
  59 H59          -12.2007    -5.0319     4.7701 H       
  60 H60          -13.5306    -4.8058     2.7099 H       
  61 H61          -12.5235    -3.8053     0.6982 H       
  62 H62          -11.8633    -2.8405    -0.7012 H       
  63 H63          -10.4058    -2.7861    -1.7215 H       
  64 H64          -10.8889    -4.3108    -0.9403 H       
@<TRIPOS>BOND
   1    1    2 1
   2    1   27 1
   3    1   38 1
   4    1   39 1
   5    2    3 1
   6    2   24 1
   7    3    4 ar
   8    3    8 ar
   9    4    5 ar
  10    4   40 1
  11    5    6 ar
  12    5   41 1
  13    6    7 ar
  14    6    9 1
  15    7    8 ar
  16    7   42 1
  17    8   43 1
  18    9   10 1
  19    9   44 1
  20   10   11 ar
  21   10   12 ar
  22   11   15 ar
  23   12   13 ar
  24   13   14 ar
  25   13   16 1
  26   14   15 ar
  27   14   19 1
  28   15   45 1
  29   16   17 am
  30   16   20 1
  31   17   18 1
  32   17   21 2
  33   18   19 2
  34   18   46 1
  35   19   47 1
  36   20   37 1
  37   20   22 1
  38   20   48 1
  39   22   23 ar
  40   22   32 ar
  41   23   29 ar
  42   23   33 1
  43   24   25 1
  44   24   49 1
  45   24   50 1
  46   25   26 1
  47   25   51 1
  48   25   52 1
  49   26   27 1
  50   26   28 1
  51   27   53 1
  52   27   54 1
  53   28   55 1
  54   28   56 1
  55   28   57 1
  56   29   30 ar
  57   29   58 1
  58   30   31 ar
  59   30   59 1
  60   31   32 ar
  61   31   60 1
  62   32   61 1
  63   33   34 1
  64   33   35 1
  65   33   36 1
  66   37   62 1
  67   37   63 1
  68   37   64 1

#	End of record

