#	Name: ASD03090817
#	Creating user name:	WinNT
#	Creation time:	15. 06. 2019 20:29

#	Modifying user name:	WinNT
#	Modification time:	15. 06. 2019 20:29

#	Program:	/corina/corina34_cracker 3.40 0067  02.08.2006

@<TRIPOS>MOLECULE
ASD03090817
  32   34    0    0    0
SMALL
NO_CHARGES


@<TRIPOS>ATOM
   1 C1            -0.0162     1.3296    -0.0597 C.2     
   2 N2             0.0019    -0.0042    -0.0461 N.2     
   3 O3             1.0304     1.9530    -0.0627 O.2     
   4 O4            -1.1948     1.9887    -0.0758 O.3     
   5 S5             2.7414     0.0374    -0.0372 S.3     
   6 C6             1.1643    -0.6543    -0.0358 C.2     
   7 N7             1.3503    -1.9979    -0.0220 N.pl3   
   8 C8             2.6372    -2.4419    -0.0133 C.2     
   9 C9             3.5894    -1.5184    -0.0191 C.2     
  10 C10            5.0793    -1.7448    -0.0122 C.3     
  11 O11           -2.7448    -5.6999    -0.0245 O.3     
  12 C12           -1.9409    -6.8618     0.2527 C.3     
  13 O13           -0.6321    -6.4933    -0.2210 O.3     
  14 C14           -0.5793    -5.1326    -0.1254 C.ar    
  15 C15           -1.8786    -4.6440    -0.0045 C.ar    
  16 C16            0.4904    -4.2539    -0.1313 C.ar    
  17 C17            0.2672    -2.8883    -0.0166 C.ar    
  18 C18           -1.0282    -2.4046     0.1040 C.ar    
  19 C19           -2.0969    -3.2809     0.1100 C.ar    
  20 F20           -1.9109    -7.1223     1.6269 F       
  21 F21           -2.4230    -7.9719    -0.4490 F       
  22 C22           -1.1395     3.4166    -0.0897 C.3     
  23 H23            2.8717    -3.4961    -0.0019 H       
  24 H24            5.5929    -0.7834    -0.0197 H       
  25 H25            5.3585    -2.2989     0.8840 H       
  26 H26            5.3641    -2.3158    -0.8959 H       
  27 H27            1.4983    -4.6305    -0.2246 H       
  28 H28           -1.2013    -1.3423     0.1932 H       
  29 H29           -3.1040    -2.9022     0.2033 H       
  30 H30           -0.6191     3.7687     0.8010 H       
  31 H31           -0.6048     3.7508    -0.9789 H       
  32 H32           -2.1522     3.8193    -0.1019 H       
@<TRIPOS>BOND
   1    1    2 1
   2    1    3 2
   3    1    4 1
   4    2    6 2
   5    4   22 1
   6    5    6 1
   7    5    9 1
   8    6    7 1
   9    7    8 1
  10    7   17 1
  11    8    9 2
  12    8   23 1
  13    9   10 1
  14   10   24 1
  15   10   25 1
  16   10   26 1
  17   11   12 1
  18   11   15 1
  19   12   13 1
  20   12   20 1
  21   12   21 1
  22   13   14 1
  23   14   15 ar
  24   14   16 ar
  25   15   19 ar
  26   16   17 ar
  27   16   27 1
  28   17   18 ar
  29   18   19 ar
  30   18   28 1
  31   19   29 1
  32   22   30 1
  33   22   31 1
  34   22   32 1

#	End of record

