#	Name: ASD01815666
#	Creating user name:	WinNT
#	Creation time:	15. 06. 2019 19:33

#	Modifying user name:	WinNT
#	Modification time:	15. 06. 2019 19:33

#	Program:	/corina/corina34_cracker 3.40 0067  02.08.2006

@<TRIPOS>MOLECULE
ASD01815666
  55   57    0    0    0
SMALL
NO_CHARGES


@<TRIPOS>ATOM
   1 C1            -0.0168     1.3913     0.0097 C.ar    
   2 C2             0.0021    -0.0041     0.0020 C.ar    
   3 C3             1.2516     2.1509     0.0017 C.2     
   4 O4             2.3138     1.5600    -0.0117 O.2     
   5 N5             1.2303     3.4985     0.0091 N.am    
   6 C6             2.4871     4.2511     0.0011 C.3     
   7 C7             2.2598     5.6319     0.6204 C.3     
   8 N8             3.5144     6.3945     0.5935 N.3     
   9 C9             3.9766     6.6079    -0.7839 C.3     
  10 C10            4.2553     5.2562    -1.4451 C.3     
  11 C11            2.9741     4.4177    -1.4410 C.3     
  12 C12            3.3694     7.6720     1.3040 C.3     
  13 C13            4.7251     8.3797     1.3625 C.3     
  14 C14            4.5772     9.6948     2.1341 C.3     
  15 N15            3.5081    10.4893     1.5139 N.am    
  16 C16            2.1877     9.8726     1.3266 C.3     
  17 C17            2.3624     8.5555     0.5641 C.3     
  18 C18            3.7342    11.7596     1.1247 C.2     
  19 O19            4.8305    12.2584     1.2855 O.2     
  20 O20            2.7453    12.4761     0.5577 O.3     
  21 C21            3.0603    13.8375     0.1632 C.3     
  22 C22            1.8224    14.4881    -0.4574 C.3     
  23 C23           -1.1846    -0.7082     0.0096 C.ar    
  24 C24           -2.3924    -0.0347     0.0244 C.ar    
  25 C25           -2.4196     1.3509     0.0316 C.ar    
  26 C26           -1.2380     2.0670     0.0192 C.ar    
  27 F27           -3.6031     2.0023     0.0451 F       
  28 H28            0.9441    -0.5321    -0.0102 H       
  29 H29            0.3827     3.9700     0.0197 H       
  30 H30            3.2377     3.7121     0.5793 H       
  31 H31            1.4987     6.1647     0.0504 H       
  32 H32            1.9267     5.5170     1.6519 H       
  33 H33            3.2075     7.1361    -1.3473 H       
  34 H34            4.8906     7.2018    -0.7724 H       
  35 H35            4.5834     5.4143    -2.4724 H       
  36 H36            5.0342     4.7333    -0.8901 H       
  37 H37            3.1787     3.4376    -1.8719 H       
  38 H38            2.2069     4.9220    -2.0285 H       
  39 H39            3.0130     7.4856     2.3171 H       
  40 H40            5.4478     7.7400     1.8691 H       
  41 H41            5.0704     8.5887     0.3500 H       
  42 H42            4.3198     9.4828     3.1718 H       
  43 H43            5.5147    10.2494     2.0940 H       
  44 H44            1.7355     9.6751     2.2984 H       
  45 H45            1.5486    10.5445     0.7536 H       
  46 H46            2.7299     8.7629    -0.4409 H       
  47 H47            1.4034     8.0410     0.5023 H       
  48 H48            3.3695    14.4074     1.0395 H       
  49 H49            3.8695    13.8262    -0.5669 H       
  50 H50            1.0132    14.4994     0.2728 H       
  51 H51            2.0589    15.5101    -0.7535 H       
  52 H52            1.5132    13.9182    -1.3336 H       
  53 H53           -1.1701    -1.7881     0.0037 H       
  54 H54           -3.3182    -0.5909     0.0299 H       
  55 H55           -1.2593     3.1468     0.0248 H       
@<TRIPOS>BOND
   1    1    2 ar
   2    1    3 1
   3    1   26 ar
   4    2   23 ar
   5    2   28 1
   6    3    4 2
   7    3    5 am
   8    5    6 1
   9    5   29 1
  10    6    7 1
  11    6   11 1
  12    6   30 1
  13    7    8 1
  14    7   31 1
  15    7   32 1
  16    8    9 1
  17    8   12 1
  18    9   10 1
  19    9   33 1
  20    9   34 1
  21   10   11 1
  22   10   35 1
  23   10   36 1
  24   11   37 1
  25   11   38 1
  26   12   13 1
  27   12   17 1
  28   12   39 1
  29   13   14 1
  30   13   40 1
  31   13   41 1
  32   14   15 1
  33   14   42 1
  34   14   43 1
  35   15   16 1
  36   15   18 am
  37   16   17 1
  38   16   44 1
  39   16   45 1
  40   17   46 1
  41   17   47 1
  42   18   19 2
  43   18   20 1
  44   20   21 1
  45   21   22 1
  46   21   48 1
  47   21   49 1
  48   22   50 1
  49   22   51 1
  50   22   52 1
  51   23   24 ar
  52   23   53 1
  53   24   25 ar
  54   24   54 1
  55   25   26 ar
  56   25   27 1
  57   26   55 1

#	End of record

