#	Name: ASD01708006
#	Creating user name:	WinNT
#	Creation time:	15. 06. 2019 19:22

#	Modifying user name:	WinNT
#	Modification time:	15. 06. 2019 19:22

#	Program:	/corina/corina34_cracker 3.40 0067  02.08.2006

@<TRIPOS>MOLECULE
ASD01708006
  66   69    0    0    0
SMALL
NO_CHARGES


@<TRIPOS>ATOM
   1 C1            -0.0158     1.3804     0.0293 C.ar    
   2 C2             0.0024    -0.0021     0.0140 C.ar    
   3 C3             1.1695     2.0967     0.0242 C.ar    
   4 C4             2.3791     1.4368     0.0033 C.ar    
   5 C5             2.4092     0.0383    -0.0123 C.ar    
   6 C6             1.2068    -0.6802    -0.0065 C.ar    
   7 F7             1.2240    -2.0310    -0.0210 F       
   8 C8             3.6961    -0.6736    -0.0351 C.2     
   9 C9             4.8518     0.0221    -0.0410 C.2     
  10 C10            6.1321    -0.6862    -0.0637 C.2     
  11 N11            7.2833     0.0060    -0.1736 N.am    
  12 O12            6.1574    -1.9003     0.0167 O.2     
  13 C13            7.2838     1.4572    -0.3865 C.3     
  14 C14            8.2915     1.8147    -1.4509 C.ar    
  15 C15            9.2153     0.9080    -1.9241 C.ar    
  16 C16            9.2869    -0.5156    -1.4369 C.3     
  17 C17            8.5915    -0.6630    -0.0786 C.3     
  18 C18           10.1266     1.2988    -2.8962 C.ar    
  19 C19            8.2660     3.1103    -1.9532 C.ar    
  20 C20            9.1620     3.5085    -2.9212 C.ar    
  21 C21           10.1074     2.5979    -3.4015 C.ar    
  22 Cl22           9.1167     5.1296    -3.5405 Cl      
  23 C23           11.0786     3.0088    -4.4355 C.2     
  24 N24           10.7760     2.8617    -5.7406 N.am    
  25 O25           12.1509     3.4799    -4.1095 O.2     
  26 C26           11.7393     3.2693    -6.7664 C.3     
  27 C27           11.5834     4.7422    -7.0449 C.2     
  28 O28           12.3673     5.3395    -7.9563 O.3     
  29 O29           10.7529     5.3853    -6.4479 O.2     
  30 C30           11.4830     2.4776    -8.0502 C.3     
  31 C31           11.7582     1.0167    -7.8029 C.ar    
  32 C32           10.7439     0.1871    -7.3632 C.ar    
  33 C33           10.9965    -1.1531    -7.1363 C.ar    
  34 C34           12.2632    -1.6634    -7.3495 C.ar    
  35 C35           13.2775    -0.8338    -7.7901 C.ar    
  36 C36           13.0240     0.5051    -8.0211 C.ar    
  37 S37            9.7037    -2.2104    -6.5747 S.o2    
  38 C38            8.9447    -2.8444    -8.0954 C.3     
  39 O39           10.3785    -3.2519    -5.8825 O.2     
  40 O40            8.8087    -1.3398    -5.8962 O.2     
  41 Cl41          11.2983     0.1617    -3.4861 Cl      
  42 H42           -0.9599     1.9047     0.0408 H       
  43 H43           -0.9263    -0.5533     0.0185 H       
  44 H44            1.1457     3.1763     0.0362 H       
  45 H45            3.3018     1.9981    -0.0014 H       
  46 H46            3.7158    -1.7534    -0.0471 H       
  47 H47            4.8322     1.1019    -0.0290 H       
  48 H48            6.2915     1.7774    -0.7043 H       
  49 H49            7.5456     1.9602     0.5444 H       
  50 H50            8.8016    -1.1677    -2.1630 H       
  51 H51           10.3322    -0.8078    -1.3363 H       
  52 H52            9.1958    -0.1943     0.6980 H       
  53 H53            8.4496    -1.7192     0.1504 H       
  54 H54            7.5353     3.8130    -1.5807 H       
  55 H55            9.9205     2.4859    -6.0008 H       
  56 H56           12.7515     3.0715    -6.4134 H       
  57 H57           12.2302     6.2858    -8.1005 H       
  58 H58           10.4441     2.6051    -8.3544 H       
  59 H59           12.1401     2.8426    -8.8395 H       
  60 H60            9.7542     0.5859    -7.1967 H       
  61 H61           12.4606    -2.7102    -7.1715 H       
  62 H62           14.2674    -1.2325    -7.9564 H       
  63 H63           13.8164     1.1532    -8.3654 H       
  64 H64            9.6913    -3.3871    -8.6752 H       
  65 H65            8.1249    -3.5157    -7.8398 H       
  66 H66            8.5619    -2.0114    -8.6851 H       
@<TRIPOS>BOND
   1    1    2 ar
   2    1    3 ar
   3    1   42 1
   4    2    6 ar
   5    2   43 1
   6    3    4 ar
   7    3   44 1
   8    4    5 ar
   9    4   45 1
  10    5    6 ar
  11    5    8 1
  12    6    7 1
  13    8    9 2
  14    8   46 1
  15    9   10 1
  16    9   47 1
  17   10   11 am
  18   10   12 2
  19   11   13 1
  20   11   17 1
  21   13   14 1
  22   13   48 1
  23   13   49 1
  24   14   15 ar
  25   14   19 ar
  26   15   16 1
  27   15   18 ar
  28   16   17 1
  29   16   50 1
  30   16   51 1
  31   17   52 1
  32   17   53 1
  33   18   41 1
  34   18   21 ar
  35   19   20 ar
  36   19   54 1
  37   20   21 ar
  38   20   22 1
  39   21   23 1
  40   23   24 am
  41   23   25 2
  42   24   26 1
  43   24   55 1
  44   26   27 1
  45   26   30 1
  46   26   56 1
  47   27   28 1
  48   27   29 2
  49   28   57 1
  50   30   31 1
  51   30   58 1
  52   30   59 1
  53   31   32 ar
  54   31   36 ar
  55   32   33 ar
  56   32   60 1
  57   33   34 ar
  58   33   37 1
  59   34   35 ar
  60   34   61 1
  61   35   36 ar
  62   35   62 1
  63   36   63 1
  64   37   38 1
  65   37   39 2
  66   37   40 2
  67   38   64 1
  68   38   65 1
  69   38   66 1

#	End of record

