#	Name: ASD01870682
#	Creating user name:	WinNT
#	Creation time:	15. 06. 2019 19:39

#	Modifying user name:	WinNT
#	Modification time:	15. 06. 2019 19:39

#	Program:	/corina/corina34_cracker 3.40 0067  02.08.2006

@<TRIPOS>MOLECULE
ASD01870682
  38   41    0    0    0
SMALL
NO_CHARGES


@<TRIPOS>ATOM
   1 C1            -0.0175     1.4475     0.0142 C.2     
   2 C2             0.0020    -0.0040    -0.0008 C.2     
   3 C3             1.2280    -0.5353    -0.0717 C.2     
   4 S4             2.4386     0.6591    -0.1251 S.3     
   5 C5             1.2694     1.9672    -0.0497 C.2     
   6 C6            -1.2302    -0.8268     0.0573 C.ar    
   7 C7            -2.1531    -0.7806    -0.9881 C.ar    
   8 C8            -3.2988    -1.5492    -0.9279 C.ar    
   9 C9            -3.5316    -2.3634     0.1661 C.ar    
  10 C10           -2.6199    -2.4129     1.2050 C.ar    
  11 C11           -1.4683    -1.6535     1.1535 C.ar    
  12 N12           -1.0678     2.3087     0.0840 N.2     
  13 C13            1.4389     3.3734    -0.0452 C.2     
  14 N14            0.3427     4.1567     0.0211 N.am    
  15 C15           -0.8943     3.5946     0.0862 C.2     
  16 C16            0.4788     5.5518     0.0273 C.ar    
  17 C17            1.0623     6.1879     1.1149 C.ar    
  18 C18            1.1965     7.5620     1.1202 C.ar    
  19 C19            0.7479     8.3073     0.0393 C.ar    
  20 C20            0.1648     7.6722    -1.0478 C.ar    
  21 C21            0.0353     6.2977    -1.0567 C.ar    
  22 O22            2.5534     3.8660    -0.0998 O.2     
  23 O23            0.8795     9.6603     0.0455 O.3     
  24 C24            0.3960    10.3644    -1.1002 C.3     
  25 Cl25          -1.8622     0.2412    -2.3610 Cl      
  26 H26            1.4259    -1.5968    -0.0920 H       
  27 H27           -4.0144    -1.5144    -1.7360 H       
  28 H28           -4.4291    -2.9626     0.2092 H       
  29 H29           -2.8074    -3.0502     2.0565 H       
  30 H30           -0.7551    -1.6969     1.9633 H       
  31 H31           -1.7593     4.2390     0.1427 H       
  32 H32            1.4108     5.6080     1.9567 H       
  33 H33            1.6503     8.0569     1.9661 H       
  34 H34           -0.1842     8.2529    -1.8889 H       
  35 H35           -0.4150     5.8031    -1.9047 H       
  36 H36            0.5618    11.4334    -0.9664 H       
  37 H37            0.9279    10.0225    -1.9880 H       
  38 H38           -0.6706    10.1744    -1.2200 H       
@<TRIPOS>BOND
   1    1    2 1
   2    1    5 2
   3    1   12 1
   4    2    3 2
   5    2    6 1
   6    3    4 1
   7    3   26 1
   8    4    5 1
   9    5   13 1
  10    6    7 ar
  11    6   11 ar
  12    7    8 ar
  13    7   25 1
  14    8    9 ar
  15    8   27 1
  16    9   10 ar
  17    9   28 1
  18   10   11 ar
  19   10   29 1
  20   11   30 1
  21   12   15 2
  22   13   14 am
  23   13   22 2
  24   14   15 1
  25   14   16 1
  26   15   31 1
  27   16   17 ar
  28   16   21 ar
  29   17   18 ar
  30   17   32 1
  31   18   19 ar
  32   18   33 1
  33   19   20 ar
  34   19   23 1
  35   20   21 ar
  36   20   34 1
  37   21   35 1
  38   23   24 1
  39   24   36 1
  40   24   37 1
  41   24   38 1

#	End of record

