#	Name: ASD01028579
#	Creating user name:	WinNT
#	Creation time:	15. 06. 2019 18:57

#	Modifying user name:	WinNT
#	Modification time:	15. 06. 2019 18:57

#	Program:	/corina/corina34_cracker 3.40 0067  02.08.2006

@<TRIPOS>MOLECULE
ASD01028579
  58   63    0    0    0
SMALL
NO_CHARGES


@<TRIPOS>ATOM
   1 N1            -0.0169     1.3921     0.0097 N.2     
   2 N2             0.0021    -0.0041     0.0020 N.pl3   
   3 C3             1.1087     2.0746     0.0026 C.2     
   4 C4             2.3555     1.4108    -0.0129 C.2     
   5 C5             2.4043     0.0531    -0.0206 C.2     
   6 C6             1.2004    -0.6774    -0.0130 C.2     
   7 N7             0.9138    -1.9689    -0.0176 N.2     
   8 N8            -0.3646    -2.1207    -0.0065 N.2     
   9 C9            -0.9590    -0.9535     0.0057 C.2     
  10 C10           -2.4466    -0.7132     0.0214 C.3     
  11 N11           -2.9153    -0.6434     1.4076 N.pl3   
  12 C12           -4.2593    -0.4274     1.6754 C.ar    
  13 C13           -5.1758    -0.2748     0.6482 C.ar    
  14 C14           -6.5150    -0.0596     0.9452 C.ar    
  15 N15           -6.9458     0.0051     2.1837 N.ar    
  16 C16           -6.1162    -0.1335     3.2231 C.ar    
  17 C17           -4.7367    -0.3620     3.0078 C.ar    
  18 C18           -6.5922    -0.0623     4.5456 C.ar    
  19 C19           -5.6919    -0.2126     5.5673 C.ar    
  20 C20           -4.3406    -0.4301     5.2784 C.ar    
  21 N21           -3.9079    -0.5017     4.0434 N.ar    
  22 O22           -6.1105    -0.1501     6.8583 O.3     
  23 C23            1.0674     3.5527     0.0105 C.2     
  24 C24           -5.1164    -0.3155     7.8714 C.3     
  25 C25           -5.7718    -0.2150     9.2503 C.3     
  26 C26           -0.0441     4.3659     0.0249 C.2     
  27 C27            0.2380     5.7096     0.0296 C.2     
  28 N28            1.4840     6.0814     0.0202 N.2     
  29 S29            2.4373     4.6775     0.0111 S.3     
  30 C30           -0.8708     6.7301     0.0446 C.3     
  31 C31           -4.7290    -0.5174    10.3571 C.3     
  32 S32           -5.5188     0.1889    11.8527 S.o2    
  33 C33           -6.6067     1.3796    10.9898 C.3     
  34 C34           -6.2688     1.2207     9.4941 C.3     
  35 O35           -6.3148    -0.8072    12.4799 O.2     
  36 O36           -4.5471     0.9001    12.6072 O.2     
  37 H37            3.2712     1.9834    -0.0189 H       
  38 H38            3.3547    -0.4596    -0.0328 H       
  39 H39           -2.6682     0.2264    -0.4848 H       
  40 H40           -2.9522    -1.5308    -0.4924 H       
  41 H41           -2.2860    -0.7483     2.1383 H       
  42 H42           -4.8499    -0.3227    -0.3803 H       
  43 H43           -7.2208     0.0579     0.1362 H       
  44 H44           -7.6392     0.1067     4.7496 H       
  45 H45           -3.6392    -0.5472     6.0912 H       
  46 H46           -4.6463    -1.2930     7.7630 H       
  47 H47           -4.3613     0.4640     7.7703 H       
  48 H48           -6.6038    -0.9157     9.3198 H       
  49 H49           -1.0525     3.9793     0.0321 H       
  50 H50           -1.1291     6.9707     1.0759 H       
  51 H51           -0.5400     7.6337    -0.4674 H       
  52 H52           -1.7453     6.3239    -0.4637 H       
  53 H53           -4.5827    -1.5918    10.4677 H       
  54 H54           -3.7841    -0.0169    10.1456 H       
  55 H55           -7.6536     1.1348    11.1695 H       
  56 H56           -6.3928     2.3960    11.3203 H       
  57 H57           -5.4893     1.9304     9.2171 H       
  58 H58           -7.1604     1.4065     8.8952 H       
@<TRIPOS>BOND
   1    1    2 1
   2    1    3 2
   3    2    6 1
   4    2    9 1
   5    3    4 1
   6    3   23 1
   7    4    5 2
   8    4   37 1
   9    5    6 1
  10    5   38 1
  11    6    7 2
  12    7    8 1
  13    8    9 2
  14    9   10 1
  15   10   11 1
  16   10   39 1
  17   10   40 1
  18   11   12 1
  19   11   41 1
  20   12   13 ar
  21   12   17 ar
  22   13   14 ar
  23   13   42 1
  24   14   15 ar
  25   14   43 1
  26   15   16 ar
  27   16   17 ar
  28   16   18 ar
  29   17   21 ar
  30   18   19 ar
  31   18   44 1
  32   19   20 ar
  33   19   22 1
  34   20   21 ar
  35   20   45 1
  36   22   24 1
  37   23   26 2
  38   23   29 1
  39   24   25 1
  40   24   46 1
  41   24   47 1
  42   25   31 1
  43   25   34 1
  44   25   48 1
  45   26   27 1
  46   26   49 1
  47   27   28 2
  48   27   30 1
  49   28   29 1
  50   30   50 1
  51   30   51 1
  52   30   52 1
  53   31   32 1
  54   31   53 1
  55   31   54 1
  56   32   33 1
  57   32   35 2
  58   32   36 2
  59   33   34 1
  60   33   55 1
  61   33   56 1
  62   34   57 1
  63   34   58 1

#	End of record

