#	Name: ASD04590308
#	Creating user name:	WinNT
#	Creation time:	15. 06. 2019 20:50

#	Modifying user name:	WinNT
#	Modification time:	15. 06. 2019 20:50

#	Program:	/corina/corina34_cracker 3.40 0067  02.08.2006

@<TRIPOS>MOLECULE
ASD04590308
  39   43    0    0    0
SMALL
NO_CHARGES


@<TRIPOS>ATOM
   1 C1            -0.0167     1.3834     0.0096 C.ar    
   2 C2             0.0021    -0.0041     0.0020 C.ar    
   3 C3             1.1863    -0.6848    -0.0125 C.ar    
   4 C4             2.3948     0.0191    -0.0203 C.ar    
   5 C5             2.3756     1.4250    -0.0131 C.ar    
   6 C6             1.1624     2.0987     0.0022 C.ar    
   7 N7             3.6952    -0.3636    -0.0349 N.2     
   8 C8             4.4665     0.6967    -0.0371 C.2     
   9 N9             3.6970     1.8290    -0.0239 N.pl3   
  10 C10            5.9437     0.6731    -0.0516 C.2     
  11 C11            6.7566    -0.4840    -0.0658 C.2     
  12 C12            8.0504    -0.0800    -0.0762 C.2     
  13 N13            8.0626     1.2789    -0.0688 N.pl3   
  14 N14            6.7358     1.7273    -0.0592 N.2     
  15 N15            6.3043    -1.8134    -0.0683 N.am    
  16 C16            7.1922    -2.8272    -0.0825 C.2     
  17 C17            6.7171    -4.2239    -0.0851 C.ar    
  18 O18            8.3851    -2.5907    -0.0932 O.2     
  19 C19            7.1767    -6.5939    -0.1078 C.ar    
  20 C20            5.8163    -6.8500    -0.0909 C.ar    
  21 C21            4.9070    -5.8051    -0.0752 C.ar    
  22 C22            5.3465    -4.4996    -0.0728 C.ar    
  23 C23            7.6361    -5.2791    -0.1056 C.ar    
  24 O24            8.9980    -5.2917    -0.1251 O.3     
  25 C25            9.3648    -6.6173    -0.5514 C.3     
  26 O26            8.2549    -7.4314    -0.1289 O.3     
  27 F27            9.5078    -6.6644    -1.9423 F       
  28 F28           10.5440    -7.0279     0.0795 F       
  29 H29           -0.9614     1.9069     0.0170 H       
  30 H30           -0.9290    -0.5513     0.0080 H       
  31 H31            1.1893    -1.7648    -0.0177 H       
  32 H32            1.1417     3.1785     0.0075 H       
  33 H33            4.0192     2.7439    -0.0230 H       
  34 H34            8.9175    -0.7237    -0.0878 H       
  35 H35            8.8532     1.8409    -0.0729 H       
  36 H36            5.3529    -2.0021    -0.0597 H       
  37 H37            5.4619    -7.8702    -0.0926 H       
  38 H38            3.8477    -6.0151    -0.0624 H       
  39 H39            4.6326    -3.6893    -0.0611 H       
@<TRIPOS>BOND
   1    1    2 ar
   2    1    6 ar
   3    1   29 1
   4    2    3 ar
   5    2   30 1
   6    3    4 ar
   7    3   31 1
   8    4    5 ar
   9    4    7 1
  10    5    6 ar
  11    5    9 1
  12    6   32 1
  13    7    8 2
  14    8    9 1
  15    8   10 1
  16    9   33 1
  17   10   11 1
  18   10   14 2
  19   11   12 2
  20   11   15 1
  21   12   13 1
  22   12   34 1
  23   13   14 1
  24   13   35 1
  25   15   16 am
  26   15   36 1
  27   16   17 1
  28   16   18 2
  29   17   22 ar
  30   17   23 ar
  31   19   20 ar
  32   19   23 ar
  33   19   26 1
  34   20   21 ar
  35   20   37 1
  36   21   22 ar
  37   21   38 1
  38   22   39 1
  39   23   24 1
  40   24   25 1
  41   25   26 1
  42   25   27 1
  43   25   28 1

#	End of record

