#	Name: ASD01140493
#	Creating user name:	WinNT
#	Creation time:	15. 06. 2019 19:01

#	Modifying user name:	WinNT
#	Modification time:	15. 06. 2019 19:01

#	Program:	/corina/corina34_cracker 3.40 0067  02.08.2006

@<TRIPOS>MOLECULE
ASD01140493
  34   36    0    0    0
SMALL
NO_CHARGES


@<TRIPOS>ATOM
   1 C1            -0.0169     1.3958     0.0097 C.ar    
   2 C2             0.0021    -0.0041     0.0020 C.ar    
   3 C3             1.2172    -0.6694    -0.0131 C.ar    
   4 C4             2.4093     0.0530    -0.0201 C.ar    
   5 C5             2.3944     1.4385    -0.0121 C.ar    
   6 C6             1.1875     2.1205     0.0021 C.ar    
   7 O7             1.1574     3.4707     0.0091 O.3     
   8 C8             0.0070     4.1621     0.0233 C.2     
   9 C9            -1.2106     3.5554     0.0322 C.2     
  10 C10           -1.2863     2.1427     0.0197 C.2     
  11 O11            1.2471    -2.0306    -0.0207 O.3     
  12 C12            1.2491    -2.6723    -1.2975 C.3     
  13 O13           -1.1617    -0.7045     0.0098 O.3     
  14 O14            3.5963    -0.6073    -0.0345 O.3     
  15 O15           -2.3616     1.5654     0.0221 O.2     
  16 C16            0.0652     5.6360     0.0301 C.ar    
  17 C17            1.3012     6.2886     0.0218 C.ar    
  18 C18            1.3509     7.6650     0.0277 C.ar    
  19 C19            0.1746     8.4048     0.0419 C.ar    
  20 C20           -1.0565     7.7600     0.0507 C.ar    
  21 C21           -1.1155     6.3840     0.0390 C.ar    
  22 O22            0.2281     9.7613     0.0477 O.3     
  23 H23            3.3243     1.9878    -0.0169 H       
  24 H24           -2.1133     4.1482     0.0439 H       
  25 H25            0.3477    -2.3961    -1.8445 H       
  26 H26            2.1272    -2.3570    -1.8612 H       
  27 H27            1.2742    -3.7534    -1.1607 H       
  28 H28           -1.5075    -0.9025    -0.8713 H       
  29 H29            3.9319    -0.7937    -0.9220 H       
  30 H30            2.2158     5.7145     0.0111 H       
  31 H31            2.3055     8.1701     0.0217 H       
  32 H32           -1.9683     8.3387     0.0624 H       
  33 H33           -2.0726     5.8837     0.0410 H       
  34 H34            0.2356    10.1584    -0.8340 H       
@<TRIPOS>BOND
   1    1    2 ar
   2    1    6 ar
   3    1   10 1
   4    2    3 ar
   5    2   13 1
   6    3    4 ar
   7    3   11 1
   8    4    5 ar
   9    4   14 1
  10    5    6 ar
  11    5   23 1
  12    6    7 1
  13    7    8 1
  14    8    9 2
  15    8   16 1
  16    9   10 1
  17    9   24 1
  18   10   15 2
  19   11   12 1
  20   12   25 1
  21   12   26 1
  22   12   27 1
  23   13   28 1
  24   14   29 1
  25   16   17 ar
  26   16   21 ar
  27   17   18 ar
  28   17   30 1
  29   18   19 ar
  30   18   31 1
  31   19   20 ar
  32   19   22 1
  33   20   21 ar
  34   20   32 1
  35   21   33 1
  36   22   34 1

#	End of record

