#	Name: ASD01881427
#	Creating user name:	WinNT
#	Creation time:	15. 06. 2019 19:42

#	Modifying user name:	WinNT
#	Modification time:	15. 06. 2019 19:42

#	Program:	/corina/corina34_cracker 3.40 0067  02.08.2006

@<TRIPOS>MOLECULE
ASD01881427
  53   56    0    0    0
SMALL
NO_CHARGES


@<TRIPOS>ATOM
   1 O1             1.6914     1.3562    -3.0135 O.3     
   2 C2            -6.0088    -3.6358    -5.7938 C.ar    
   3 C3            -4.7556    -3.3087    -5.3197 C.ar    
   4 C4            -6.9453    -2.6394    -6.0309 C.ar    
   5 C5            -6.6235    -1.3075    -5.7913 C.ar    
   6 C6            -5.3712    -0.9740    -5.3170 C.ar    
   7 C7            -4.4286    -1.9747    -5.0781 C.ar    
   8 C8            -3.0834    -1.6208    -4.5685 C.2     
   9 C9            -2.6804    -2.0379    -3.3137 C.2     
  10 C10           -2.1951    -0.8572    -5.3645 C.2     
  11 C11           -0.9734    -0.5363    -4.8993 C.2     
  12 N12           -0.5692    -0.9392    -3.6591 N.pl3   
  13 C13           -1.3985    -1.6865    -2.8579 C.2     
  14 C14            0.5786    -0.7665    -2.9469 C.2     
  15 N15            0.4244    -1.3723    -1.7980 N.2     
  16 N16           -0.7383    -1.9197    -1.7339 N.2     
  17 C17            1.8035    -0.0149    -3.4003 C.3     
  18 F18           -7.5373    -0.3398    -6.0235 F       
  19 O19           -8.1789    -2.9655    -6.4983 O.3     
  20 C20           -8.4883    -4.2818    -6.6158 C.ar    
  21 C21            2.5802     3.6021    -2.9347 C.3     
  22 C22            2.8075     2.1617    -3.3977 C.3     
  23 C23           -9.0520    -4.9808    -5.5510 C.ar    
  24 C24           -9.3526    -6.3179    -5.7105 C.ar    
  25 N25           -9.1121    -6.9335    -6.8527 N.ar    
  26 C26           -8.5793    -6.3057    -7.8839 C.ar    
  27 C27           -8.2557    -4.9667    -7.8062 C.ar    
  28 C28           -8.3262    -7.0593    -9.1642 C.3     
  29 C29           -9.9628    -7.0850    -4.5658 C.3     
  30 C30           -3.6024    -2.8568    -2.4473 C.3     
  31 F31           -3.3197    -4.2160    -2.6201 F       
  32 F32           -3.4137    -2.5080    -1.1057 F       
  33 F33           -4.9296    -2.6065    -2.8120 F       
  34 H34           -6.2603    -4.6686    -5.9851 H       
  35 H35           -4.0280    -4.0852    -5.1354 H       
  36 H36           -5.1209     0.0601    -5.1312 H       
  37 H37           -2.4991    -0.5311    -6.3482 H       
  38 H38           -0.3044     0.0465    -5.5151 H       
  39 H39            1.8894    -0.0806    -4.4849 H       
  40 H40            2.6892    -0.4514    -2.9386 H       
  41 H41            1.6737     3.9934    -3.3965 H       
  42 H42            2.4735     3.6227    -1.8502 H       
  43 H43            3.4316     4.2165    -3.2278 H       
  44 H44            3.7140     1.7703    -2.9359 H       
  45 H45            2.9142     2.1411    -4.4822 H       
  46 H46           -9.2507    -4.4831    -4.6133 H       
  47 H47           -7.8198    -4.4588    -8.6538 H       
  48 H48           -9.2046    -6.9907    -9.8059 H       
  49 H49           -7.4671    -6.6265    -9.6768 H       
  50 H50           -8.1238    -8.1057    -8.9358 H       
  51 H51          -11.0493    -7.0191    -4.6225 H       
  52 H52           -9.6586    -8.1300    -4.6257 H       
  53 H53           -9.6218    -6.6608    -3.6214 H       
@<TRIPOS>BOND
   1    1   17 1
   2    1   22 1
   3    2    3 ar
   4    2    4 ar
   5    2   34 1
   6    3    7 ar
   7    3   35 1
   8    4    5 ar
   9    4   19 1
  10    5    6 ar
  11    5   18 1
  12    6    7 ar
  13    6   36 1
  14    7    8 1
  15    8    9 2
  16    8   10 1
  17    9   30 1
  18    9   13 1
  19   10   11 2
  20   10   37 1
  21   11   12 1
  22   11   38 1
  23   12   13 1
  24   12   14 1
  25   13   16 2
  26   14   15 2
  27   14   17 1
  28   15   16 1
  29   17   39 1
  30   17   40 1
  31   19   20 1
  32   20   23 ar
  33   20   27 ar
  34   21   22 1
  35   21   41 1
  36   21   42 1
  37   21   43 1
  38   22   44 1
  39   22   45 1
  40   23   24 ar
  41   23   46 1
  42   24   25 ar
  43   24   29 1
  44   25   26 ar
  45   26   27 ar
  46   26   28 1
  47   27   47 1
  48   28   48 1
  49   28   49 1
  50   28   50 1
  51   29   51 1
  52   29   52 1
  53   29   53 1
  54   30   31 1
  55   30   32 1
  56   30   33 1

#	End of record

