#	Name: ASD07930383
#	Creating user name:	WinNT
#	Creation time:	15. 06. 2019 21:12

#	Modifying user name:	WinNT
#	Modification time:	15. 06. 2019 21:12

#	Program:	/corina/corina34_cracker 3.40 0067  02.08.2006

@<TRIPOS>MOLECULE
ASD07930383
  49   50    0    0    0
SMALL
NO_CHARGES


@<TRIPOS>ATOM
   1 N1            -0.0057     1.4467     0.2176 N.pl3   
   2 C2             0.0021    -0.0041     0.0020 C.3     
   3 C3             0.8306    -0.6738     1.1076 C.3     
   4 N4             2.1540     1.7079     1.1108 N.am    
   5 C5             1.1735     2.1400     0.2471 C.2     
   6 C6            -1.4106    -0.5271     0.0446 C.ar    
   7 C7            -2.1691    -0.3774     1.1931 C.ar    
   8 C8             0.6227    -0.3150    -1.3614 C.3     
   9 C9            -3.2516    -1.6318    -1.0250 C.ar    
  10 C10           -4.0094    -1.4862     0.1293 C.ar    
  11 C11           -3.4683    -0.8573     1.2350 C.ar    
  12 C12           -1.9494    -1.1501    -1.0640 C.ar    
  13 N13           -3.7965    -2.2679    -2.1446 N.pl3   
  14 F14           -1.6417     0.2370     2.2746 F       
  15 Cl15          -4.4166    -0.6693     2.6769 Cl      
  16 C16            2.8670     2.6372     1.9906 C.3     
  17 H17            2.4921     3.6483     1.8315 H       
  18 H18            2.7065     2.3495     3.0296 H       
  19 H19            3.9330     2.6054     1.7653 H       
  20 S20            2.4900     0.0758     1.1072 S.o2    
  21 O21            3.1488    -0.1565     2.3446 O.2     
  22 O22            3.1459    -0.1516    -0.1327 O.2     
  23 N23            1.3655     3.1937    -0.5315 N.2     
  24 O24            0.5934     4.6699    -2.1573 O.3     
  25 C25           -0.4823     5.0431    -3.0209 C.3     
  26 C26           -1.7191     5.3715    -2.1823 C.3     
  27 C27           -0.0781     6.2726    -3.8369 C.3     
  28 C28           -0.8012     3.8847    -3.9682 C.3     
  29 C29            0.3977     3.5960    -1.3639 C.2     
  30 O30           -0.6591     2.9932    -1.4052 O.2     
  31 H31           -0.8469     1.9151     0.3352 H       
  32 H32            0.3538    -0.5112     2.0742 H       
  33 H33            0.9100    -1.7430     0.9112 H       
  34 H34            1.6452     0.0616    -1.3896 H       
  35 H35            0.6281    -1.3933    -1.5208 H       
  36 H36            0.0370     0.1652    -2.1453 H       
  37 H37           -5.0207    -1.8637     0.1631 H       
  38 H38           -1.3585    -1.2625    -1.9611 H       
  39 H39           -4.7045    -2.6079    -2.1152 H       
  40 H40           -3.2665    -2.3693    -2.9506 H       
  41 H41           -1.4919     6.1967    -1.5075 H       
  42 H42           -2.5396     5.6561    -2.8410 H       
  43 H43           -2.0070     4.4955    -1.6010 H       
  44 H44            0.8030     6.0386    -4.4343 H       
  45 H45           -0.8986     6.5573    -4.4956 H       
  46 H46            0.1491     7.0979    -3.1620 H       
  47 H47           -1.0891     3.0087    -3.3869 H       
  48 H48           -1.6217     4.1693    -4.6269 H       
  49 H49            0.0799     3.6507    -4.5656 H       
@<TRIPOS>BOND
   1    1    2 1
   2    1    5 1
   3    1   31 1
   4    2    3 1
   5    2    6 1
   6    2    8 1
   7    3   20 1
   8    3   32 1
   9    3   33 1
  10    4    5 1
  11    4   16 1
  12    4   20 am
  13    5   23 2
  14    6   12 ar
  15    6    7 ar
  16    7   14 1
  17    7   11 ar
  18    8   34 1
  19    8   35 1
  20    8   36 1
  21    9   10 ar
  22    9   13 1
  23    9   12 ar
  24   10   11 ar
  25   10   37 1
  26   11   15 1
  27   12   38 1
  28   13   39 1
  29   13   40 1
  30   16   17 1
  31   16   18 1
  32   16   19 1
  33   20   21 2
  34   20   22 2
  35   23   29 1
  36   24   25 1
  37   24   29 1
  38   25   26 1
  39   25   27 1
  40   25   28 1
  41   26   41 1
  42   26   42 1
  43   26   43 1
  44   27   44 1
  45   27   45 1
  46   27   46 1
  47   28   47 1
  48   28   48 1
  49   28   49 1
  50   29   30 2

#	End of record

