#	Name: ASD01120034
#	Creating user name:	WinNT
#	Creation time:	15. 06. 2019 18:58

#	Modifying user name:	WinNT
#	Modification time:	15. 06. 2019 18:58

#	Program:	/corina/corina34_cracker 3.40 0067  02.08.2006

@<TRIPOS>MOLECULE
ASD01120034
  51   54    0    0    0
SMALL
NO_CHARGES


@<TRIPOS>ATOM
   1 C1            -0.0905     1.3501     0.6499 C.ar    
   2 C2            -0.0523    -0.0391     0.4659 C.ar    
   3 C3            -1.1845    -0.7311     0.0965 C.ar    
   4 C4            -2.3851    -0.0371    -0.0962 C.ar    
   5 C5            -2.4161     1.3670     0.0921 C.ar    
   6 C6            -1.2524     2.0461     0.4722 C.ar    
   7 N7            -3.5157    -0.6644    -0.4567 N.ar    
   8 C8            -4.6257     0.0128    -0.6302 C.ar    
   9 N9            -4.7020     1.3239    -0.4663 N.ar    
  10 C10           -3.6440     2.0408    -0.1104 C.ar    
  11 N11           -3.7382     3.4079     0.0575 N.pl3   
  12 C12           -4.9822     4.0392    -0.0332 C.ar    
  13 O13            1.0404     2.0113     1.0146 O.3     
  14 O14            1.1140    -0.7099     0.6535 O.3     
  15 C15           -6.1283     3.3761     0.3791 C.ar    
  16 C16           -7.3652     4.0094     0.2872 C.ar    
  17 C17           -7.4444     5.3057    -0.2185 C.ar    
  18 C18           -6.2986     5.9593    -0.6270 C.ar    
  19 C19           -5.0702     5.3339    -0.5314 C.ar    
  20 C20           -8.5954     3.3058     0.7260 C.ar    
  21 C21            0.9376     3.4262     1.1866 C.3     
  22 C22            2.3001     3.9907     1.5938 C.3     
  23 C23            1.0888    -2.1242     0.4508 C.3     
  24 C24            2.4826    -2.7010     0.7063 C.3     
  25 N25           -8.5118     2.0719     1.2057 N.ar    
  26 C26           -9.5801     1.4126     1.6060 C.ar    
  27 C27          -10.8355     1.9878     1.5396 C.ar    
  28 C28          -10.9679     3.2774     1.0439 C.ar    
  29 C29           -9.8283     3.9486     0.6360 C.ar    
  30 H30           -1.1462    -1.8013    -0.0439 H       
  31 H31           -1.2715     3.1161     0.6172 H       
  32 H32           -5.5171    -0.5235    -0.9203 H       
  33 H33           -2.9412     3.9304     0.2384 H       
  34 H34           -6.0619     2.3715     0.7699 H       
  35 H35           -8.4023     5.7992    -0.2913 H       
  36 H36           -6.3623     6.9638    -1.0185 H       
  37 H37           -4.1770     5.8494    -0.8522 H       
  38 H38            0.6200     3.8840     0.2498 H       
  39 H39            0.2063     3.6455     1.9645 H       
  40 H40            2.6178     3.5329     2.5307 H       
  41 H41            3.0315     3.7714     0.8160 H       
  42 H42            2.2218     5.0699     1.7250 H       
  43 H43            0.3761    -2.5774     1.1399 H       
  44 H44            0.7891    -2.3390    -0.5750 H       
  45 H45            3.1953    -2.2479     0.0172 H       
  46 H46            2.7823    -2.4863     1.7321 H       
  47 H47            2.4634    -3.7798     0.5516 H       
  48 H48           -9.4736     0.4091     1.9908 H       
  49 H49          -11.7049     1.4388     1.8699 H       
  50 H50          -11.9379     3.7482     0.9821 H       
  51 H51           -9.8948     4.9532     0.2453 H       
@<TRIPOS>BOND
   1    1    2 ar
   2    1   13 1
   3    1    6 ar
   4    2    3 ar
   5    2   14 1
   6    3    4 ar
   7    3   30 1
   8    4    5 ar
   9    4    7 ar
  10    5    6 ar
  11    5   10 ar
  12    6   31 1
  13    7    8 ar
  14    8    9 ar
  15    8   32 1
  16    9   10 ar
  17   10   11 1
  18   11   12 1
  19   11   33 1
  20   12   15 ar
  21   12   19 ar
  22   13   21 1
  23   14   23 1
  24   15   16 ar
  25   15   34 1
  26   16   17 ar
  27   16   20 1
  28   17   18 ar
  29   17   35 1
  30   18   19 ar
  31   18   36 1
  32   19   37 1
  33   20   25 ar
  34   20   29 ar
  35   21   22 1
  36   21   38 1
  37   21   39 1
  38   22   40 1
  39   22   41 1
  40   22   42 1
  41   23   24 1
  42   23   43 1
  43   23   44 1
  44   24   45 1
  45   24   46 1
  46   24   47 1
  47   25   26 ar
  48   26   27 ar
  49   26   48 1
  50   27   28 ar
  51   27   49 1
  52   28   29 ar
  53   28   50 1
  54   29   51 1

#	End of record

