#	Name: ASD00431029
#	Creating user name:	WinNT
#	Creation time:	15. 06. 2019 18:35

#	Modifying user name:	WinNT
#	Modification time:	15. 06. 2019 18:35

#	Program:	/corina/corina34_cracker 3.40 0067  02.08.2006

@<TRIPOS>MOLECULE
ASD00431029
  20   20    0    0    0
SMALL
NO_CHARGES


@<TRIPOS>ATOM
   1 C1            -0.0178     1.4648     0.0101 C.3     
   2 N2             0.0021    -0.0041     0.0020 N.3     
   3 C3             1.3960     1.9864    -0.0006 C.ar    
   4 C4             2.0329     2.2320    -1.2024 C.ar    
   5 C5             3.3299     2.7105    -1.2122 C.ar    
   6 C6             3.9896     2.9437    -0.0202 C.ar    
   7 C7             3.3521     2.6988     1.1820 C.ar    
   8 C8             2.0540     2.2246     1.1918 C.ar    
   9 C9             4.0715     2.9526     2.4816 C.3     
  10 F10            5.3598     3.4291     2.2162 F       
  11 F11            3.3667     3.9041     3.2267 F       
  12 F12            4.1559     1.7602     3.2085 F       
  13 H13           -0.5450     1.8259    -0.8730 H       
  14 H14           -0.5280     1.8163     0.9069 H       
  15 H15           -0.9349    -0.3784     0.0090 H       
  16 H16            0.5256    -0.3543    -0.7863 H       
  17 H17            1.5174     2.0498    -2.1338 H       
  18 H18            3.8279     2.9018    -2.1513 H       
  19 H19            5.0030     3.3168    -0.0279 H       
  20 H20            1.5560     2.0333     2.1309 H       
@<TRIPOS>BOND
   1    1    2 1
   2    1    3 1
   3    1   13 1
   4    1   14 1
   5    2   15 1
   6    2   16 1
   7    3    4 ar
   8    3    8 ar
   9    4    5 ar
  10    4   17 1
  11    5    6 ar
  12    5   18 1
  13    6    7 ar
  14    6   19 1
  15    7    8 ar
  16    7    9 1
  17    8   20 1
  18    9   10 1
  19    9   11 1
  20    9   12 1

#	End of record

