#	Name: ASD01148041
#	Creating user name:	WinNT
#	Creation time:	15. 06. 2019 19:01

#	Modifying user name:	WinNT
#	Modification time:	15. 06. 2019 19:01

#	Program:	/corina/corina34_cracker 3.40 0067  02.08.2006

@<TRIPOS>MOLECULE
ASD01148041
  43   44    0    0    0
SMALL
NO_CHARGES


@<TRIPOS>ATOM
   1 C1             2.2412    -0.9383    -0.6522 C.ar    
   2 C2             3.3126    -1.7940    -0.8282 C.ar    
   3 C3             4.6040    -1.3030    -0.7827 C.ar    
   4 C4             4.8241     0.0437    -0.5617 C.ar    
   5 C5             3.7528     0.8995    -0.3866 C.ar    
   6 C6             2.4614     0.4083    -0.4307 C.ar    
   7 C7             3.9927     2.3675    -0.1447 C.3     
   8 N8             4.1604     3.0549    -1.4320 N.3     
   9 C9             2.8680     3.2280    -2.1086 C.3     
  10 C10            2.2036     4.5157    -1.6174 C.3     
  11 O11            1.9985     4.4372    -0.2053 O.3     
  12 C12            3.0876     3.3123    -3.5971 C.2     
  13 O13            4.1861     3.1108    -4.0581 O.2     
  14 O14            2.0627     3.6112    -4.4108 O.3     
  15 C15            2.3197     3.5642    -5.8391 C.3     
  16 C16            4.8390     4.3457    -1.2551 C.3     
  17 C17            5.3509     4.8308    -2.5869 C.ar    
  18 C18            4.5837     5.6904    -3.3507 C.ar    
  19 C19            6.5900     4.4207    -3.0421 C.ar    
  20 C20            7.0596     4.8657    -4.2637 C.ar    
  21 C21            6.2898     5.7205    -5.0304 C.ar    
  22 C22            5.0533     6.1354    -4.5724 C.ar    
  23 H23            1.2322    -1.3211    -0.6922 H       
  24 H24            3.1406    -2.8461    -1.0009 H       
  25 H25            5.4410    -1.9717    -0.9195 H       
  26 H26            5.8331     0.4271    -0.5255 H       
  27 H27            1.6243     1.0771    -0.2943 H       
  28 H28            3.1406     2.7923     0.3859 H       
  29 H29            4.8941     2.4943     0.4550 H       
  30 H30            2.2236     2.3781    -1.8839 H       
  31 H31            2.8469     5.3659    -1.8443 H       
  32 H32            1.2435     4.6428    -2.1175 H       
  33 H33            1.5118     5.1869     0.1637 H       
  34 H34            3.0470     4.3321    -6.1029 H       
  35 H35            2.7141     2.5835    -6.1053 H       
  36 H36            1.3910     3.7418    -6.3814 H       
  37 H37            4.1360     5.0732    -0.8492 H       
  38 H38            5.6753     4.2252    -0.5664 H       
  39 H39            3.6174     6.0141    -2.9932 H       
  40 H40            7.1915     3.7529    -2.4431 H       
  41 H41            8.0280     4.5459    -4.6190 H       
  42 H42            6.6568     6.0684    -5.9846 H       
  43 H43            4.4518     6.8032    -5.1713 H       
@<TRIPOS>BOND
   1    1    2 ar
   2    1    6 ar
   3    1   23 1
   4    2    3 ar
   5    2   24 1
   6    3    4 ar
   7    3   25 1
   8    4    5 ar
   9    4   26 1
  10    5    6 ar
  11    5    7 1
  12    6   27 1
  13    7    8 1
  14    7   28 1
  15    7   29 1
  16    8    9 1
  17    8   16 1
  18    9   10 1
  19    9   12 1
  20    9   30 1
  21   10   11 1
  22   10   31 1
  23   10   32 1
  24   11   33 1
  25   12   13 2
  26   12   14 1
  27   14   15 1
  28   15   34 1
  29   15   35 1
  30   15   36 1
  31   16   17 1
  32   16   37 1
  33   16   38 1
  34   17   18 ar
  35   17   19 ar
  36   18   22 ar
  37   18   39 1
  38   19   20 ar
  39   19   40 1
  40   20   21 ar
  41   20   41 1
  42   21   22 ar
  43   21   42 1
  44   22   43 1

#	End of record

