#	Name: ASD01811393
#	Creating user name:	WinNT
#	Creation time:	15. 06. 2019 19:26

#	Modifying user name:	WinNT
#	Modification time:	15. 06. 2019 19:26

#	Program:	/corina/corina34_cracker 3.40 0067  02.08.2006

@<TRIPOS>MOLECULE
ASD01811393
  21   20    0    0    0
SMALL
NO_CHARGES


@<TRIPOS>ATOM
   1 C1            -0.0168     1.3876     0.0097 C.ar    
   2 C2             0.0021    -0.0041     0.0020 C.ar    
   3 C3             1.2224    -0.6651    -0.0132 C.ar    
   4 C4             2.3825     0.0875    -0.0203 C.ar    
   5 C5             2.2932     1.4794    -0.0120 C.ar    
   6 N6             1.1172     2.0801     0.0026 N.ar    
   7 C7            -1.3128     2.1031     0.0197 C.2     
   8 O8            -2.3527     1.4760     0.0212 O.2     
   9 O9            -1.3385     3.4497     0.0271 O.3     
  10 C10            3.7290    -0.5891    -0.0364 C.3     
  11 N11            3.4547     2.2426    -0.0186 N.pl3   
  12 H12           -0.9220    -0.5630     0.0082 H       
  13 H13            1.2650    -1.7442    -0.0191 H       
  14 H14           -2.2083     3.8722     0.0335 H       
  15 H15            4.0440    -0.7470    -1.0678 H       
  16 H16            4.4580     0.0405     0.4738 H       
  17 H17            3.6589    -1.5500     0.4733 H       
  18 H18            4.3212     1.8069    -0.0289 H       
  19 H19            3.3987     3.2110    -0.0128 H       
  20 Cl20           9.4580     8.8722     5.4738 Cl      
  21 H21            9.4580    10.2422     5.4738 H       
@<TRIPOS>BOND
   1    1    2 ar
   2    1    6 ar
   3    1    7 1
   4    2    3 ar
   5    2   12 1
   6    3    4 ar
   7    3   13 1
   8    4    5 ar
   9    4   10 1
  10    5    6 ar
  11    5   11 1
  12    7    8 2
  13    7    9 1
  14    9   14 1
  15   10   15 1
  16   10   16 1
  17   10   17 1
  18   11   18 1
  19   11   19 1
  20   20   21 1

#	End of record

