#	Name: ASD01882921
#	Creating user name:	WinNT
#	Creation time:	15. 06. 2019 19:45

#	Modifying user name:	WinNT
#	Modification time:	15. 06. 2019 19:45

#	Program:	/corina/corina34_cracker 3.40 0067  02.08.2006

@<TRIPOS>MOLECULE
ASD01882921
  41   42    0    0    0
SMALL
NO_CHARGES


@<TRIPOS>ATOM
   1 C1             0.2827     1.0047     0.7692 C.ar    
   2 C2             0.3575    -0.3747     0.6405 C.ar    
   3 C3             1.5729    -0.9782     0.3818 C.ar    
   4 C4             2.7142    -0.2088     0.2512 C.ar    
   5 C5             2.6424     1.1661     0.3790 C.ar    
   6 C6             1.4294     1.7744     0.6377 C.ar    
   7 O7            -0.9127     1.6012     1.0181 O.3     
   8 C8             4.0424    -0.8716    -0.0313 C.3     
   9 C9             4.5927    -0.3408    -1.3546 C.3     
  10 C10            5.9216    -1.0192    -1.6828 C.3     
  11 C11            6.9227    -0.8611    -0.5496 C.3     
  12 C12            6.3858    -1.1594     0.8399 C.3     
  13 C13            5.0220    -0.5242     1.0870 C.3     
  14 C14            6.3221    -2.6652     1.1039 C.3     
  15 C15            7.3723    -0.5560     1.8656 C.3     
  16 C16            5.6976    -2.4870    -2.0415 C.3     
  17 C17            6.5046    -0.3196    -2.9305 C.3     
  18 H18           -0.5337    -0.9761     0.7428 H       
  19 H19            1.6317    -2.0520     0.2819 H       
  20 H20            3.5354     1.7649     0.2769 H       
  21 H21            1.3737     2.8484     0.7371 H       
  22 H22           -1.1144     1.7007     1.9586 H       
  23 H23            3.8924    -1.9463    -0.0843 H       
  24 H24            3.8754    -0.5433    -2.1522 H       
  25 H25            4.7444     0.7374    -1.2778 H       
  26 H26            7.7826    -1.5199    -0.7450 H       
  27 H27            7.3104     0.1692    -0.5642 H       
  28 H28            5.1331     0.5622     1.1438 H       
  29 H29            4.6225    -0.8816     2.0400 H       
  30 H30            7.2977    -3.1100     0.9077 H       
  31 H31            6.0453    -2.8404     2.1435 H       
  32 H32            5.5780    -3.1178     0.4485 H       
  33 H33            7.4443     0.5205     1.7105 H       
  34 H34            7.0130    -0.7544     2.8754 H       
  35 H35            8.3551    -1.0086     1.7341 H       
  36 H36            5.1385    -2.5517    -2.9749 H       
  37 H37            6.6608    -2.9833    -2.1597 H       
  38 H38            5.1335    -2.9735    -1.2457 H       
  39 H39            6.6597     0.7375    -2.7151 H       
  40 H40            7.4567    -0.7803    -3.1937 H       
  41 H41            5.8087    -0.4225    -3.7631 H       
@<TRIPOS>BOND
   1    1    2 ar
   2    1    6 ar
   3    1    7 1
   4    2    3 ar
   5    2   18 1
   6    3    4 ar
   7    3   19 1
   8    4    5 ar
   9    4    8 1
  10    5    6 ar
  11    5   20 1
  12    6   21 1
  13    7   22 1
  14    8    9 1
  15    8   13 1
  16    8   23 1
  17    9   10 1
  18    9   24 1
  19    9   25 1
  20   10   11 1
  21   10   16 1
  22   10   17 1
  23   11   12 1
  24   11   26 1
  25   11   27 1
  26   12   13 1
  27   12   14 1
  28   12   15 1
  29   13   28 1
  30   13   29 1
  31   14   30 1
  32   14   31 1
  33   14   32 1
  34   15   33 1
  35   15   34 1
  36   15   35 1
  37   16   36 1
  38   16   37 1
  39   16   38 1
  40   17   39 1
  41   17   40 1
  42   17   41 1

#	End of record

