#	Name: ASD02500157
#	Creating user name:	WinNT
#	Creation time:	15. 06. 2019 20:22

#	Modifying user name:	WinNT
#	Modification time:	15. 06. 2019 20:22

#	Program:	/corina/corina34_cracker 3.40 0067  02.08.2006

@<TRIPOS>MOLECULE
ASD02500157
  65   69    0    0    0
SMALL
NO_CHARGES


@<TRIPOS>ATOM
   1 N1            -1.9583     0.6771    -1.1946 N.am    
   2 C2            -1.3141    -0.5563    -1.6675 C.3     
   3 C3            -0.0402    -0.1808    -2.4346 C.3     
   4 N4             0.7410     0.7577    -1.6168 N.am    
   5 C5             0.0968     1.9911    -1.1440 C.3     
   6 C6            -1.1770     1.6156    -0.3768 C.3     
   7 C7            -3.2409     0.9455    -1.5100 C.2     
   8 O8            -3.7868     1.9298    -1.0502 O.2     
   9 N9            -3.9183     0.1227    -2.3350 N.am    
  10 C10           -5.2552     0.3920    -2.6489 C.ar    
  11 C11           -6.1457    -0.6534    -2.8549 C.ar    
  12 C12           -7.8984     0.9245    -3.2698 C.ar    
  13 C13           -5.6953     1.7052    -2.7496 C.ar    
  14 C14           -7.4645    -0.3843    -3.1647 C.ar    
  15 C15           -7.0154     1.9677    -3.0596 C.ar    
  16 C16           -9.3379     1.2145    -3.6084 C.3     
  17 C17            2.0252     0.4918    -1.3057 C.2     
  18 C18            2.8260     1.4859    -0.5662 C.ar    
  19 C19            3.7769     1.0644     0.3678 C.ar    
  20 C20            4.5224     1.9941     1.0560 C.ar    
  21 C21            4.3303     3.3531     0.8229 C.ar    
  22 C22            3.3837     3.7760    -0.1062 C.ar    
  23 C23            2.6395     2.8511    -0.8022 C.ar    
  24 O24            2.5236    -0.5674    -1.6345 O.2     
  25 S25            5.8183     5.5328     0.7073 S.o2    
  26 O26            4.8214     6.1126    -0.1230 O.2     
  27 O27            6.5478     6.2716     1.6775 O.2     
  28 N28            5.0851     4.2901     1.5199 N.am    
  29 N29            8.3848     4.1709     1.4701 N.ar    
  30 C30            9.4610     3.6098     1.9652 C.ar    
  31 C31           10.4299     3.0329     1.1467 C.ar    
  32 C32           10.2703     3.0428    -0.2096 C.ar    
  33 C33            9.1131     3.6459    -0.7378 C.ar    
  34 C34            8.8805     3.6947    -2.1214 C.ar    
  35 C35            7.7489     4.2874    -2.5931 C.ar    
  36 C36            6.8175     4.8458    -1.7205 C.ar    
  37 C37            7.0115     4.8170    -0.3736 C.ar    
  38 C38            8.1677     4.2144     0.1517 C.ar    
  39 H39           -1.0559    -1.1842    -0.8147 H       
  40 H40           -1.9940    -1.0939    -2.3283 H       
  41 H41            0.5492    -1.0774    -2.6261 H       
  42 H42           -0.3082     0.2926    -3.3792 H       
  43 H43            0.7767     2.5288    -0.4831 H       
  44 H44           -0.1614     2.6191    -1.9967 H       
  45 H45           -1.7665     2.5123    -0.1853 H       
  46 H46           -0.9091     1.1423     0.5678 H       
  47 H47           -3.4791    -0.6562    -2.7111 H       
  48 H48           -5.8074    -1.6758    -2.7734 H       
  49 H49           -5.0062     2.5204    -2.5852 H       
  50 H50           -8.1575    -1.1969    -3.3254 H       
  51 H51           -7.3572     2.9888    -3.1428 H       
  52 H52           -9.9198     1.2869    -2.6896 H       
  53 H53           -9.4003     2.1565    -4.1532 H       
  54 H54           -9.7348     0.4098    -4.2274 H       
  55 H55            3.9261     0.0103     0.5493 H       
  56 H56            5.2569     1.6692     1.7779 H       
  57 H57            3.2365     4.8310    -0.2843 H       
  58 H58            1.9090     3.1796    -1.5266 H       
  59 H59            5.1822     4.2158     2.4822 H       
  60 H60            9.6007     3.5945     3.0360 H       
  61 H61           11.3065     2.5787     1.5845 H       
  62 H62           11.0114     2.6007    -0.8589 H       
  63 H63            9.5952     3.2650    -2.8078 H       
  64 H64            7.5708     4.3245    -3.6577 H       
  65 H65            5.9281     5.3109    -2.1193 H       
@<TRIPOS>BOND
   1    1    2 1
   2    1    6 1
   3    1    7 am
   4    2    3 1
   5    2   39 1
   6    2   40 1
   7    3    4 1
   8    3   41 1
   9    3   42 1
  10    4    5 1
  11    4   17 am
  12    5    6 1
  13    5   43 1
  14    5   44 1
  15    6   45 1
  16    6   46 1
  17    7    8 2
  18    7    9 am
  19    9   10 1
  20    9   47 1
  21   10   11 ar
  22   10   13 ar
  23   11   14 ar
  24   11   48 1
  25   12   14 ar
  26   12   15 ar
  27   12   16 1
  28   13   15 ar
  29   13   49 1
  30   14   50 1
  31   15   51 1
  32   16   52 1
  33   16   53 1
  34   16   54 1
  35   17   18 1
  36   17   24 2
  37   18   19 ar
  38   18   23 ar
  39   19   20 ar
  40   19   55 1
  41   20   21 ar
  42   20   56 1
  43   21   22 ar
  44   21   28 1
  45   22   23 ar
  46   22   57 1
  47   23   58 1
  48   25   26 2
  49   25   27 2
  50   25   28 am
  51   25   37 1
  52   28   59 1
  53   29   30 ar
  54   29   38 ar
  55   30   31 ar
  56   30   60 1
  57   31   32 ar
  58   31   61 1
  59   32   33 ar
  60   32   62 1
  61   33   34 ar
  62   33   38 ar
  63   34   35 ar
  64   34   63 1
  65   35   36 ar
  66   35   64 1
  67   36   37 ar
  68   36   65 1
  69   37   38 ar

#	End of record

