#	Name: ASD09800035
#	Creating user name:	WinNT
#	Creation time:	15. 06. 2019 21:24

#	Modifying user name:	WinNT
#	Modification time:	15. 06. 2019 21:24

#	Program:	/corina/corina34_cracker 3.40 0067  02.08.2006

@<TRIPOS>MOLECULE
ASD09800035
  61   65    0    0    0
SMALL
NO_CHARGES


@<TRIPOS>ATOM
   1 C1            -3.3426     1.2153     2.9452 C.2     
   2 N2            -4.4424     0.5655     3.2789 N.2     
   3 C3            -5.1399    -0.1328     2.3733 C.2     
   4 C4            -4.7528    -0.2041     1.0870 C.2     
   5 C5            -2.8952     1.1792     1.6081 C.2     
   6 C6            -1.8173     1.7269     0.9246 C.2     
   7 N7            -3.6138     0.4524     0.6772 N.pl3   
   8 C8            -2.9817     0.5822    -0.5027 C.2     
   9 N9            -1.9224     1.3367    -0.3554 N.2     
  10 C10           -0.7534     2.5808     1.4992 C.ar    
  11 C11            0.0670     4.7569     2.0985 C.ar    
  12 C12            1.2381     4.1794     2.5751 C.ar    
  13 C13            1.4147     2.8027     2.5080 C.ar    
  14 C14            0.4258     2.0047     1.9733 C.ar    
  15 C15           -0.9253     3.9646     1.5628 C.ar    
  16 N16            2.2439     4.9866     3.1179 N.am    
  17 C17            3.5128     4.5359     3.1741 C.2     
  18 N18            4.4608     5.2670     3.7931 N.am    
  19 O19            3.8023     3.4697     2.6663 O.2     
  20 C20            5.7550     4.7552     3.9388 C.ar    
  21 C21            7.5870     3.4654     3.0843 C.ar    
  22 C22            6.3092     3.9692     2.9373 C.ar    
  23 C23            6.4901     5.0370     5.0831 C.ar    
  24 C24            7.7669     4.5304     5.2240 C.ar    
  25 C25            8.3141     3.7435     4.2269 C.ar    
  26 C26            8.5652     4.8356     6.4652 C.3     
  27 F27            8.3206     3.8528     7.4303 F       
  28 F28            9.9283     4.8516     6.1508 F       
  29 F29            8.1876     6.0859     6.9667 F       
  30 N30           -2.6377     1.9308     3.8984 N.pl3   
  31 C31           -3.4234    -0.0498    -1.7976 C.3     
  32 C32           -4.8238     0.2933    -2.3095 C.3     
  33 C33           -3.5911     0.8678    -3.0104 C.3     
  34 C34           -2.9067    -1.4676    -2.0499 C.3     
  35 C35           -2.1945     4.5916     1.0458 C.3     
  36 C36           -0.1204     6.2504     2.1732 C.3     
  37 H37           -6.0348    -0.6517     2.6835 H       
  38 H38           -5.3336    -0.7750     0.3776 H       
  39 H39            2.3259     2.3570     2.8788 H       
  40 H40            0.5635     0.9347     1.9217 H       
  41 H41            2.0278     5.8706     3.4538 H       
  42 H42            4.2460     6.1480     4.1375 H       
  43 H43            8.0186     2.8540     2.3056 H       
  44 H44            5.7417     3.7517     2.0446 H       
  45 H45            6.0636     5.6520     5.8617 H       
  46 H46            9.3128     3.3481     4.3396 H       
  47 H47           -2.8994     1.8844     4.8313 H       
  48 H48           -1.8822     2.4783     3.6333 H       
  49 H49           -5.3768    -0.4910    -2.8264 H       
  50 H50           -5.4257     0.9760    -1.7097 H       
  51 H51           -3.3819     1.9285    -2.8717 H       
  52 H52           -3.3331     0.4615    -3.9884 H       
  53 H53           -3.1963    -2.1128    -1.2205 H       
  54 H54           -3.3355    -1.8512    -2.9756 H       
  55 H55           -1.8200    -1.4488    -2.1333 H       
  56 H56           -2.9266     4.6470     1.8514 H       
  57 H57           -1.9806     5.5956     0.6794 H       
  58 H58           -2.5941     3.9855     0.2328 H       
  59 H59            0.2620     6.7105     1.2621 H       
  60 H60           -1.1810     6.4787     2.2781 H       
  61 H61            0.4224     6.6420     3.0335 H       
@<TRIPOS>BOND
   1    1    2 2
   2    1   30 1
   3    1    5 1
   4    2    3 1
   5    3    4 2
   6    3   37 1
   7    4    7 1
   8    4   38 1
   9    5    7 1
  10    5    6 2
  11    6    9 1
  12    6   10 1
  13    7    8 1
  14    8    9 2
  15    8   31 1
  16   10   15 ar
  17   10   14 ar
  18   11   12 ar
  19   11   15 ar
  20   11   36 1
  21   12   13 ar
  22   12   16 1
  23   13   14 ar
  24   13   39 1
  25   14   40 1
  26   15   35 1
  27   16   17 am
  28   16   41 1
  29   17   18 am
  30   17   19 2
  31   18   20 1
  32   18   42 1
  33   20   23 ar
  34   20   22 ar
  35   21   22 ar
  36   21   25 ar
  37   21   43 1
  38   22   44 1
  39   23   24 ar
  40   23   45 1
  41   24   25 ar
  42   24   26 1
  43   25   46 1
  44   26   27 1
  45   26   28 1
  46   26   29 1
  47   30   47 1
  48   30   48 1
  49   31   32 1
  50   31   33 1
  51   31   34 1
  52   32   33 1
  53   32   49 1
  54   32   50 1
  55   33   51 1
  56   33   52 1
  57   34   53 1
  58   34   54 1
  59   34   55 1
  60   35   56 1
  61   35   57 1
  62   35   58 1
  63   36   59 1
  64   36   60 1
  65   36   61 1

#	End of record

