#	Name: ASD08710023
#	Creating user name:	WinNT
#	Creation time:	15. 06. 2019 21:19

#	Modifying user name:	WinNT
#	Modification time:	15. 06. 2019 21:19

#	Program:	/corina/corina34_cracker 3.40 0067  02.08.2006

@<TRIPOS>MOLECULE
ASD08710023
  52   55    0    0    0
SMALL
NO_CHARGES


@<TRIPOS>ATOM
   1 C1            -0.8799    -0.2760    -1.4398 C.ar    
   2 C2            -0.6238    -1.5954    -1.1168 C.ar    
   3 C3             0.1675     0.6109    -1.6053 C.ar    
   4 C4             1.4709     0.1783    -1.4477 C.ar    
   5 C5             1.7270    -1.1410    -1.1243 C.ar    
   6 C6             0.6797    -2.0280    -0.9592 C.ar    
   7 S7             1.0060    -3.7096    -0.5464 S.o2    
   8 O8            -0.1237    -4.4554    -0.9784 O.2     
   9 O9             2.3302    -3.9807    -0.9849 O.2     
  10 N10            1.0303    -3.8128     1.1062 N.am    
  11 C11           -0.2007    -4.0996     1.8559 C.3     
  12 C12            2.2845    -3.6252     1.8490 C.3     
  13 C13            2.5193    -4.8562     2.7331 C.3     
  14 N14            1.2872    -5.1375     3.4832 N.am    
  15 C15            0.0393    -5.3297     2.7401 C.3     
  16 C16           -0.1117     2.0492    -1.9579 C.3     
  17 C17            1.3071    -5.2224     4.8282 C.2     
  18 O18            2.3664    -5.1940     5.4231 O.2     
  19 C19            0.0383    -5.3502     5.5809 C.ar    
  20 C20            0.0546    -5.8698     6.8742 C.ar    
  21 C21           -1.1359    -5.9855     7.5698 C.ar    
  22 C22           -2.3145    -5.5737     6.9425 C.ar    
  23 C23           -2.2505    -5.0628     5.6436 C.ar    
  24 N24           -1.1004    -4.9634     5.0174 N.ar    
  25 F25           -0.2528     2.7981    -0.7846 F       
  26 F26            0.9507     2.5592    -2.7117 F       
  27 F27           -1.2923     2.1256    -2.7046 F       
  28 C28           -3.6158    -5.6778     7.6457 C.ar    
  29 C29           -4.7819    -5.2627     7.0061 C.ar    
  30 C30           -5.9896    -5.3665     7.6753 C.ar    
  31 C31           -5.9909    -5.8824     8.9630 C.ar    
  32 C32           -4.7953    -6.2754     9.5376 C.ar    
  33 N33           -3.6609    -6.1707     8.8770 N.ar    
  34 H34           -1.8980     0.0609    -1.5673 H       
  35 H35           -1.4421    -2.2883    -0.9872 H       
  36 H36            2.2892     0.8711    -1.5777 H       
  37 H37            2.7454    -1.4791    -1.0019 H       
  38 H38           -0.4561    -3.2440     2.4810 H       
  39 H39           -1.0142    -4.3029     1.1595 H       
  40 H40            3.1119    -3.5151     1.1480 H       
  41 H41            2.2101    -2.7350     2.4736 H       
  42 H42            2.7707    -5.7130     2.1080 H       
  43 H43            3.3339    -4.6565     3.4293 H       
  44 H44           -0.7897    -5.4392     3.4392 H       
  45 H45            0.1173    -6.2218     2.1186 H       
  46 H46            0.9849    -6.1786     7.3275 H       
  47 H47           -1.1536    -6.3848     8.5732 H       
  48 H48           -3.1564    -4.7423     5.1506 H       
  49 H49           -4.7443    -4.8653     6.0026 H       
  50 H50           -6.9100    -5.0525     7.2054 H       
  51 H51           -6.9163    -5.9760     9.5119 H       
  52 H52           -4.7928    -6.6775    10.5400 H       
@<TRIPOS>BOND
   1    1    2 ar
   2    1    3 ar
   3    1   34 1
   4    2    6 ar
   5    2   35 1
   6    3    4 ar
   7    3   16 1
   8    4    5 ar
   9    4   36 1
  10    5    6 ar
  11    5   37 1
  12    6    7 1
  13    7    8 2
  14    7    9 2
  15    7   10 am
  16   10   11 1
  17   10   12 1
  18   11   15 1
  19   11   38 1
  20   11   39 1
  21   12   13 1
  22   12   40 1
  23   12   41 1
  24   13   14 1
  25   13   42 1
  26   13   43 1
  27   14   15 1
  28   14   17 am
  29   15   44 1
  30   15   45 1
  31   16   25 1
  32   16   26 1
  33   16   27 1
  34   17   18 2
  35   17   19 1
  36   19   20 ar
  37   19   24 ar
  38   20   21 ar
  39   20   46 1
  40   21   22 ar
  41   21   47 1
  42   22   23 ar
  43   22   28 1
  44   23   24 ar
  45   23   48 1
  46   28   29 ar
  47   28   33 ar
  48   29   30 ar
  49   29   49 1
  50   30   31 ar
  51   30   50 1
  52   31   32 ar
  53   31   51 1
  54   32   33 ar
  55   32   52 1

#	End of record

