#	Name: ASD03430204
#	Creating user name:	WinNT
#	Creation time:	15. 06. 2019 20:40

#	Modifying user name:	WinNT
#	Modification time:	15. 06. 2019 20:40

#	Program:	/corina/corina34_cracker 3.40 0067  02.08.2006

@<TRIPOS>MOLECULE
ASD03430204
  67   73    0    0    0
SMALL
NO_CHARGES


@<TRIPOS>ATOM
   1 C1            -0.0135     1.3142     0.2052 C.ar    
   2 C2             0.0010    -0.0626     0.1686 C.ar    
   3 C3             1.2011    -0.7422     0.1594 C.ar    
   4 C4             2.4053    -0.0439     0.1957 C.ar    
   5 C5             2.3821     1.3455     0.2219 C.ar    
   6 C6             1.1752     2.0344     0.2238 C.ar    
   7 O7             3.4684    -0.8972     0.2129 O.3     
   8 C8             1.5527    -2.2040     0.1022 C.3     
   9 C9             3.0463    -2.1930    -0.2528 C.3     
  10 C10            0.4147    -3.9454     1.0991 C.ar    
  11 C11            1.2926    -2.9073     1.4015 C.ar    
  12 C12            0.7424    -2.9463    -0.9211 C.2     
  13 N13            0.1138    -3.9420    -0.2647 N.am    
  14 O14            0.6679    -2.6985    -2.1060 O.2     
  15 C15            1.7308    -2.7144     2.6922 C.ar    
  16 C16            1.3007    -3.5552     3.7037 C.ar    
  17 C17            0.4288    -4.5888     3.4151 C.ar    
  18 C18           -0.0136    -4.7862     2.1234 C.ar    
  19 C19           -0.7805    -4.9083    -0.9073 C.3     
  20 C20           -1.1454     2.3221     0.2421 C.3     
  21 C21           -0.4105     3.6131     0.6743 C.3     
  22 O22            0.9365     3.3756     0.2315 O.3     
  23 C23           -2.2059    -4.4364    -0.7784 C.ar    
  24 C24           -3.2368    -5.1481    -1.3947 C.ar    
  25 C25           -2.9345    -6.3663    -2.1754 C.2     
  26 O26           -1.7799    -6.6987    -2.3603 O.2     
  27 C27           -2.4955    -3.3036    -0.0466 C.ar    
  28 C28           -3.8040    -2.8693     0.0731 C.ar    
  29 C29           -4.8296    -3.5668    -0.5394 C.ar    
  30 C30           -4.5543    -4.7045    -1.2700 C.ar    
  31 N31           -3.9389    -7.1084    -2.6822 N.am    
  32 C32           -3.6594    -8.3223    -3.3179 C.ar    
  33 C33           -2.6077    -9.1137    -2.8753 C.ar    
  34 C34           -2.3346   -10.3123    -3.5051 C.ar    
  35 C35           -3.1071   -10.7244    -4.5752 C.ar    
  36 C36           -4.1550    -9.9383    -5.0189 C.ar    
  37 C37           -4.4369    -8.7417    -4.3900 C.ar    
  38 C38           -5.5789    -7.8858    -4.8740 C.3     
  39 C39           -4.9940   -10.3912    -6.1859 C.3     
  40 H40           -0.9291    -0.6110     0.1474 H       
  41 H41            3.3114     1.8953     0.2418 H       
  42 H42            3.1889    -2.2826    -1.3297 H       
  43 H43            3.5757    -2.9856     0.2761 H       
  44 H44            2.4115    -1.9062     2.9155 H       
  45 H45            1.6454    -3.4045     4.7160 H       
  46 H46            0.0929    -5.2449     4.2044 H       
  47 H47           -0.6944    -5.5959     1.9057 H       
  48 H48           -0.5212    -4.9975    -1.9622 H       
  49 H49           -0.6741    -5.8793    -0.4236 H       
  50 H50           -1.5935     2.4407    -0.7444 H       
  51 H51           -1.8971     2.0368     0.9780 H       
  52 H52           -0.8335     4.4842     0.1740 H       
  53 H53           -0.4456     3.7333     1.7571 H       
  54 H54           -1.6994    -2.7547     0.4343 H       
  55 H55           -4.0254    -1.9819     0.6475 H       
  56 H56           -5.8487    -3.2225    -0.4421 H       
  57 H57           -5.3559    -5.2481    -1.7477 H       
  58 H58           -4.8556    -6.8007    -2.6059 H       
  59 H59           -2.0037    -8.7922    -2.0397 H       
  60 H60           -1.5166   -10.9281    -3.1616 H       
  61 H61           -2.8915   -11.6620    -5.0660 H       
  62 H62           -6.4917    -8.1670    -4.3488 H       
  63 H63           -5.3554    -6.8371    -4.6782 H       
  64 H64           -5.7156    -8.0343    -5.9452 H       
  65 H65           -5.8328   -10.9845    -5.8219 H       
  66 H66           -5.3708    -9.5202    -6.7222 H       
  67 H67           -4.3854   -10.9963    -6.8578 H       
@<TRIPOS>BOND
   1    1    2 ar
   2    1    6 ar
   3    1   20 1
   4    2    3 ar
   5    2   40 1
   6    3    4 ar
   7    3    8 1
   8    4    5 ar
   9    4    7 1
  10    5    6 ar
  11    5   41 1
  12    6   22 1
  13    7    9 1
  14    8    9 1
  15    8   11 1
  16    8   12 1
  17    9   42 1
  18    9   43 1
  19   10   11 ar
  20   10   13 1
  21   10   18 ar
  22   11   15 ar
  23   12   13 am
  24   12   14 2
  25   13   19 1
  26   15   16 ar
  27   15   44 1
  28   16   17 ar
  29   16   45 1
  30   17   18 ar
  31   17   46 1
  32   18   47 1
  33   19   23 1
  34   19   48 1
  35   19   49 1
  36   20   21 1
  37   20   50 1
  38   20   51 1
  39   21   22 1
  40   21   52 1
  41   21   53 1
  42   23   24 ar
  43   23   27 ar
  44   24   25 1
  45   24   30 ar
  46   25   26 2
  47   25   31 am
  48   27   28 ar
  49   27   54 1
  50   28   29 ar
  51   28   55 1
  52   29   30 ar
  53   29   56 1
  54   30   57 1
  55   31   32 1
  56   31   58 1
  57   32   33 ar
  58   32   37 ar
  59   33   34 ar
  60   33   59 1
  61   34   35 ar
  62   34   60 1
  63   35   36 ar
  64   35   61 1
  65   36   37 ar
  66   36   39 1
  67   37   38 1
  68   38   62 1
  69   38   63 1
  70   38   64 1
  71   39   65 1
  72   39   66 1
  73   39   67 1

#	End of record

