#	Name: ASD00431077
#	Creating user name:	WinNT
#	Creation time:	15. 06. 2019 18:35

#	Modifying user name:	WinNT
#	Modification time:	15. 06. 2019 18:35

#	Program:	/corina/corina34_cracker 3.40 0067  02.08.2006

@<TRIPOS>MOLECULE
ASD00431077
  53   55    0    0    0
SMALL
NO_CHARGES


@<TRIPOS>ATOM
   1 N1             0.0754     1.1218     0.2435 N.am    
   2 C2             0.1170    -0.2252     0.2564 C.2     
   3 O3             1.1879    -0.8006     0.2391 O.2     
   4 N4            -1.0286    -0.9345     0.2885 N.am    
   5 C5            -0.9834    -2.3987     0.3026 C.3     
   6 C6             1.3206     1.8928     0.2086 C.3     
   7 C7             1.7891     2.0396    -1.2405 C.3     
   8 C8            -0.0889     3.9426     0.5304 C.ar    
   9 C9             1.0828     3.2582     0.8004 C.ar    
  10 C10            2.0337     3.8402     1.6196 C.ar    
  11 C11            1.7681     5.1099     2.1465 C.ar    
  12 C12            0.5616     5.7338     1.8259 C.ar    
  13 N13           -0.3125     5.1380     1.0413 N.ar    
  14 S14            4.3086     5.1268     3.5243 S.3     
  15 C15            4.6204     6.5384     4.4365 C.2     
  16 N16            3.6272     7.3663     4.3384 N.2     
  17 C17            2.6078     6.9942     3.5933 C.2     
  18 C18            2.7487     5.7780     3.0277 C.2     
  19 O19            5.7446     6.7605     5.1590 O.3     
  20 C20            5.8937     7.9757     5.7503 C.ar    
  21 C21            5.0328     8.3628     6.7669 C.ar    
  22 C22            5.1843     9.5973     7.3675 C.ar    
  23 C23            6.1973    10.4500     6.9542 C.ar    
  24 C24            7.0581    10.0631     5.9377 C.ar    
  25 C25            6.9103     8.8263     5.3409 C.ar    
  26 O26            6.3461    11.6655     7.5452 O.3     
  27 C27            5.3448    12.0559     8.4870 C.3     
  28 C28            5.7924    11.6678     9.8976 C.3     
  29 C29            5.1402    13.5705     8.4155 C.3     
  30 H30           -0.7791     1.5808     0.2533 H       
  31 H31           -1.8830    -0.4755     0.3023 H       
  32 H32           -0.4781    -2.7553    -0.5950 H       
  33 H33           -0.4395    -2.7370     1.1845 H       
  34 H34           -1.9992    -2.7933     0.3286 H       
  35 H35            2.0853     1.3743     0.7869 H       
  36 H36            2.7156     2.6132    -1.2665 H       
  37 H37            1.9611     1.0520    -1.6685 H       
  38 H38            1.0244     2.5581    -1.8189 H       
  39 H39           -0.8309     3.4924    -0.1124 H       
  40 H40            2.9570     3.3281     1.8471 H       
  41 H41            0.3427     6.7132     2.2248 H       
  42 H42            1.7329     7.6103     3.4475 H       
  43 H43            4.2439     7.6990     7.0885 H       
  44 H44            4.5139     9.8988     8.1587 H       
  45 H45            7.8466    10.7272     5.6157 H       
  46 H46            7.5833     8.5232     4.5525 H       
  47 H47            4.4079    11.5512     8.2513 H       
  48 H48            5.9381    10.5888     9.9486 H       
  49 H49            6.7293    12.1725    10.1333 H       
  50 H50            5.0286    11.9656    10.6160 H       
  51 H51            4.8213    13.8470     7.4105 H       
  52 H52            4.3764    13.8683     9.1338 H       
  53 H53            6.0772    14.0752     8.6511 H       
@<TRIPOS>BOND
   1    1    2 am
   2    1    6 1
   3    1   30 1
   4    2    3 2
   5    2    4 am
   6    4    5 1
   7    4   31 1
   8    5   32 1
   9    5   33 1
  10    5   34 1
  11    6    7 1
  12    6    9 1
  13    6   35 1
  14    7   36 1
  15    7   37 1
  16    7   38 1
  17    8    9 ar
  18    8   13 ar
  19    8   39 1
  20    9   10 ar
  21   10   11 ar
  22   10   40 1
  23   11   12 ar
  24   11   18 1
  25   12   13 ar
  26   12   41 1
  27   14   15 1
  28   14   18 1
  29   15   16 2
  30   15   19 1
  31   16   17 1
  32   17   18 2
  33   17   42 1
  34   19   20 1
  35   20   21 ar
  36   20   25 ar
  37   21   22 ar
  38   21   43 1
  39   22   23 ar
  40   22   44 1
  41   23   24 ar
  42   23   26 1
  43   24   25 ar
  44   24   45 1
  45   25   46 1
  46   26   27 1
  47   27   28 1
  48   27   29 1
  49   27   47 1
  50   28   48 1
  51   28   49 1
  52   28   50 1
  53   29   51 1
  54   29   52 1
  55   29   53 1

#	End of record

