#	Name: ASD01913932
#	Creating user name:	WinNT
#	Creation time:	15. 06. 2019 20:02

#	Modifying user name:	WinNT
#	Modification time:	15. 06. 2019 20:02

#	Program:	/corina/corina34_cracker 3.40 0067  02.08.2006

@<TRIPOS>MOLECULE
ASD01913932
  41   43    0    0    0
SMALL
NO_CHARGES


@<TRIPOS>ATOM
   1 C1            -0.0165     1.4277     0.0218 C.ar    
   2 C2             0.0030    -0.0041     0.0138 C.1     
   3 C3             0.0189    -1.1780     0.0072 C.1     
   4 C4             0.0384    -2.6098    -0.0008 C.ar    
   5 N5            -1.0803    -3.2944     0.2390 N.ar    
   6 C6             0.1296    -5.2905    -0.0270 C.ar    
   7 N7             1.2440    -4.6118    -0.2723 N.ar    
   8 C8             1.2292    -3.2925    -0.2657 C.ar    
   9 C9            -1.0596    -4.6123     0.2311 C.ar    
  10 C10           -1.2062     2.1122     0.2865 C.ar    
  11 C11           -0.0571     4.1987     0.0389 C.ar    
  12 N12            0.1480    -6.6833    -0.0351 N.am    
  13 C13            1.1546     2.1468    -0.2293 C.ar    
  14 C14           -1.2186     3.4911     0.2933 C.ar    
  15 C15           -0.9334    -7.4738    -0.0299 C.2     
  16 N16           -0.6493    -8.7827    -0.0399 N.am    
  17 C17            0.8105    -8.9602    -0.0539 C.3     
  18 C18            1.3575    -7.5195    -0.0571 C.3     
  19 C19            1.2721    -9.7127     1.1956 C.3     
  20 C20            1.2495    -9.6985    -1.3200 C.3     
  21 C21           -1.6360    -9.8656    -0.0372 C.3     
  22 O22           -2.0700    -7.0422    -0.0169 O.2     
  23 C23            1.1278     3.5281    -0.2193 C.ar    
  24 F24            2.2587     4.2263    -0.4622 F       
  25 H25            2.1359    -2.7407    -0.4650 H       
  26 H26           -1.9657    -5.1670     0.4253 H       
  27 H27           -2.1141     1.5620     0.4850 H       
  28 H28           -0.0732     5.2786     0.0456 H       
  29 H29            2.0783     1.6244    -0.4302 H       
  30 H30           -2.1385     4.0203     0.4938 H       
  31 H31            1.9414    -7.3339    -0.9585 H       
  32 H32            1.9584    -7.3364     0.8337 H       
  33 H33            0.8171   -10.7031     1.2121 H       
  34 H34            2.3574    -9.8117     1.1799 H       
  35 H35            0.9705    -9.1595     2.0851 H       
  36 H36            0.9322    -9.1352    -2.1976 H       
  37 H37            2.3350    -9.7975    -1.3249 H       
  38 H38            0.7942   -10.6886    -1.3396 H       
  39 H39           -2.6403    -9.4420    -0.0262 H       
  40 H40           -1.5086   -10.4755    -0.9316 H       
  41 H41           -1.4932   -10.4850     0.8483 H       
@<TRIPOS>BOND
   1    1    2 1
   2    1   13 ar
   3    1   10 ar
   4    2    3 3
   5    3    4 1
   6    4    5 ar
   7    4    8 ar
   8    5    9 ar
   9    6    7 ar
  10    6   12 1
  11    6    9 ar
  12    7    8 ar
  13    8   25 1
  14    9   26 1
  15   10   14 ar
  16   10   27 1
  17   11   14 ar
  18   11   23 ar
  19   11   28 1
  20   12   15 am
  21   12   18 1
  22   13   23 ar
  23   13   29 1
  24   14   30 1
  25   15   16 am
  26   15   22 2
  27   16   17 1
  28   16   21 1
  29   17   18 1
  30   17   19 1
  31   17   20 1
  32   18   31 1
  33   18   32 1
  34   19   33 1
  35   19   34 1
  36   19   35 1
  37   20   36 1
  38   20   37 1
  39   20   38 1
  40   21   39 1
  41   21   40 1
  42   21   41 1
  43   23   24 1

#	End of record

