#	Name: ASD01530053
#	Creating user name:	WinNT
#	Creation time:	15. 06. 2019 19:22

#	Modifying user name:	WinNT
#	Modification time:	15. 06. 2019 19:22

#	Program:	/corina/corina34_cracker 3.40 0067  02.08.2006

@<TRIPOS>MOLECULE
ASD01530053
  50   52    0    0    0
SMALL
NO_CHARGES


@<TRIPOS>ATOM
   1 C1             0.6246     1.6584     0.0359 C.ar    
   2 C2             0.6909     0.2860     0.1928 C.ar    
   3 C3             1.9195    -0.3460     0.2462 C.ar    
   4 C4             3.0835     0.3935     0.1433 C.ar    
   5 C5             3.0174     1.7627    -0.0132 C.ar    
   6 C6             1.7859     2.3962    -0.0672 C.ar    
   7 C7             4.0775     2.8303    -0.1514 C.3     
   8 O8             3.4221     4.0786     0.1389 O.3     
   9 C9             2.0487     3.8737    -0.2413 C.3     
  10 C10            5.1911     2.5870     0.8343 C.ar    
  11 C11            4.6291     2.8438    -1.5784 C.3     
  12 C12            5.3847     3.4615     1.8874 C.ar    
  13 C13            6.4053     3.2391     2.7923 C.ar    
  14 C14            7.2341     2.1399     2.6438 C.ar    
  15 C15            7.0393     1.2648     1.5887 C.ar    
  16 C16            6.0147     1.4863     0.6881 C.ar    
  17 C17            5.6469     3.9772    -1.7211 C.3     
  18 C18            6.1985     3.9908    -3.1481 C.3     
  19 N19            7.1758     5.0790    -3.2850 N.3     
  20 C20            7.8991     4.9797    -4.5597 C.3     
  21 C21            1.8381     4.2781    -1.7017 C.3     
  22 C22            1.1246     4.6845     0.6696 C.3     
  23 F23            8.2324     1.9218     3.5275 F       
  24 C24            6.5266     6.3897    -3.1488 C.3     
  25 H25           -0.3352     2.1515    -0.0103 H       
  26 H26           -0.2175    -0.2925     0.2740 H       
  27 H27            1.9701    -1.4179     0.3688 H       
  28 H28            4.0432    -0.1001     0.1857 H       
  29 H29            5.1145     1.8909    -1.7894 H       
  30 H30            3.8116     2.9989    -2.2825 H       
  31 H31            4.7383     4.3189     2.0028 H       
  32 H32            6.5566     3.9226     3.6146 H       
  33 H33            7.6851     0.4071     1.4719 H       
  34 H34            5.8599     0.8015    -0.1326 H       
  35 H35            5.1615     4.9301    -1.5101 H       
  36 H36            6.4644     3.8221    -1.0170 H       
  37 H37            6.6839     3.0379    -3.3591 H       
  38 H38            5.3810     4.1458    -3.8522 H       
  39 H39            7.1902     5.0406    -5.3855 H       
  40 H40            8.6161     5.7972    -4.6353 H       
  41 H41            8.4278     4.0275    -4.6042 H       
  42 H42            0.7761     4.2299    -1.9426 H       
  43 H43            2.1990     5.2955    -1.8527 H       
  44 H44            2.3891     3.5972    -2.3504 H       
  45 H45            1.3059     4.4094     1.7087 H       
  46 H46            1.3234     5.7477     0.5352 H       
  47 H47            0.0862     4.4738     0.4139 H       
  48 H48            6.0575     6.4626    -2.1676 H       
  49 H49            7.2727     7.1774    -3.2543 H       
  50 H50            5.7680     6.5017    -3.9234 H       
@<TRIPOS>BOND
   1    1    2 ar
   2    1    6 ar
   3    1   25 1
   4    2    3 ar
   5    2   26 1
   6    3    4 ar
   7    3   27 1
   8    4    5 ar
   9    4   28 1
  10    5    7 1
  11    5    6 ar
  12    6    9 1
  13    7    8 1
  14    7   10 1
  15    7   11 1
  16    8    9 1
  17    9   21 1
  18    9   22 1
  19   10   12 ar
  20   10   16 ar
  21   11   17 1
  22   11   29 1
  23   11   30 1
  24   12   13 ar
  25   12   31 1
  26   13   14 ar
  27   13   32 1
  28   14   15 ar
  29   14   23 1
  30   15   16 ar
  31   15   33 1
  32   16   34 1
  33   17   18 1
  34   17   35 1
  35   17   36 1
  36   18   19 1
  37   18   37 1
  38   18   38 1
  39   19   20 1
  40   19   24 1
  41   20   39 1
  42   20   40 1
  43   20   41 1
  44   21   42 1
  45   21   43 1
  46   21   44 1
  47   22   45 1
  48   22   46 1
  49   22   47 1
  50   24   48 1
  51   24   49 1
  52   24   50 1

#	End of record

