#	Name: ASD04590247
#	Creating user name:	WinNT
#	Creation time:	15. 06. 2019 20:50

#	Modifying user name:	WinNT
#	Modification time:	15. 06. 2019 20:50

#	Program:	/corina/corina34_cracker 3.40 0067  02.08.2006

@<TRIPOS>MOLECULE
ASD04590247
  42   44    0    0    0
SMALL
NO_CHARGES


@<TRIPOS>ATOM
   1 N1            -0.0153     1.2802     0.0091 N.pl3   
   2 N2             0.0021    -0.0041     0.0020 N.2     
   3 C3             1.2455    -0.4440    -0.0122 C.2     
   4 C4             2.0903     0.6961    -0.0142 C.2     
   5 C5             1.2523     1.7667    -0.0004 C.2     
   6 C6             1.6764    -1.8547    -0.0235 C.2     
   7 N7             0.7570    -2.8402    -0.0200 N.am    
   8 N8             3.4928     0.7146    -0.0275 N.am    
   9 O9             2.8611    -2.1285    -0.0359 O.2     
  10 C10            4.1513     1.8906    -0.0274 C.2     
  11 C11            5.6293     1.9101    -0.0414 C.ar    
  12 O12            3.5296     2.9353    -0.0159 O.2     
  13 C13            1.1850    -4.2413    -0.0312 C.3     
  14 C14            1.8480    -6.1840     1.3900 C.3     
  15 C15            1.4605    -4.7036     1.4023 C.3     
  16 C16            6.3143     3.1264    -0.0414 C.ar    
  17 C17            7.6937     3.1376    -0.0541 C.ar    
  18 C18            8.3981     1.9468    -0.0667 C.ar    
  19 C19            7.7253     0.7378    -0.0668 C.ar    
  20 C20            6.3461     0.7124    -0.0489 C.ar    
  21 C21            0.0780    -5.1096    -0.6354 C.3     
  22 C22            0.5056    -6.5783    -0.5886 C.3     
  23 N23            0.7566    -6.9722     0.8036 N.3     
  24 H24           -0.8184     1.8242     0.0160 H       
  25 H25            1.5405     2.8076     0.0024 H       
  26 H26           -0.1880    -2.6218    -0.0102 H       
  27 H27            3.9888    -0.1189    -0.0367 H       
  28 H28            2.0920    -4.3403    -0.6276 H       
  29 H29            2.7523    -6.3178     0.7962 H       
  30 H30            2.0310    -6.5200     2.4107 H       
  31 H31            2.2771    -4.1171     1.8232 H       
  32 H32            0.5641    -4.5671     2.0073 H       
  33 H33            5.7656     4.0566    -0.0319 H       
  34 H34            8.2249     4.0779    -0.0545 H       
  35 H35            9.4780     1.9611    -0.0769 H       
  36 H36            8.2811    -0.1882    -0.0767 H       
  37 H37            5.8221    -0.2319    -0.0490 H       
  38 H38           -0.8401    -4.9795    -0.0625 H       
  39 H39           -0.0931    -4.8132    -1.6703 H       
  40 H40           -0.2865    -7.2006    -1.0050 H       
  41 H41            1.4161    -6.7102    -1.1731 H       
  42 H42            0.9477    -7.9607     0.8709 H       
@<TRIPOS>BOND
   1    1    2 1
   2    1    5 1
   3    1   24 1
   4    2    3 2
   5    3    4 1
   6    3    6 1
   7    4    5 2
   8    4    8 1
   9    5   25 1
  10    6    7 am
  11    6    9 2
  12    7   13 1
  13    7   26 1
  14    8   10 am
  15    8   27 1
  16   10   12 2
  17   10   11 1
  18   11   16 ar
  19   11   20 ar
  20   13   21 1
  21   13   15 1
  22   13   28 1
  23   14   15 1
  24   14   23 1
  25   14   29 1
  26   14   30 1
  27   15   31 1
  28   15   32 1
  29   16   17 ar
  30   16   33 1
  31   17   18 ar
  32   17   34 1
  33   18   19 ar
  34   18   35 1
  35   19   20 ar
  36   19   36 1
  37   20   37 1
  38   21   22 1
  39   21   38 1
  40   21   39 1
  41   22   23 1
  42   22   40 1
  43   22   41 1
  44   23   42 1

#	End of record

