#	Name: ASD03730241
#	Creating user name:	WinNT
#	Creation time:	15. 06. 2019 20:44

#	Modifying user name:	WinNT
#	Modification time:	15. 06. 2019 20:44

#	Program:	/corina/corina34_cracker 3.40 0067  02.08.2006

@<TRIPOS>MOLECULE
ASD03730241
  59   63    0    0    0
SMALL
NO_CHARGES


@<TRIPOS>ATOM
   1 O1            -0.2720     0.8506     0.9304 O.3     
   2 C2            -0.1687    -0.5744     1.1092 C.3     
   3 O3             0.9943    -0.9327     0.3400 O.3     
   4 C4             1.7803     0.1840     0.3238 C.ar    
   5 C5             1.0009     1.2803     0.6859 C.ar    
   6 C6             3.1200     0.3562     0.0252 C.ar    
   7 C7             3.6980     1.6208     0.0820 C.ar    
   8 C8             2.9074     2.7096     0.4369 C.ar    
   9 C9             1.5728     2.5402     0.7412 C.ar    
  10 O10            4.9862     2.0017    -0.1538 O.3     
  11 C11            3.7975     3.9222     0.3808 C.3     
  12 C12            5.0256     3.4220    -0.3921 C.3     
  13 N13            3.1325     6.1003     0.5743 N.am    
  14 C14            3.1365     5.0811    -0.3080 C.2     
  15 C15            4.1622     4.4260     1.7457 C.ar    
  16 C16            4.7833     3.8570     2.8351 C.ar    
  17 C17            4.9830     4.5998     3.9850 C.ar    
  18 C18            4.5573     5.9146     4.0376 C.ar    
  19 C19            3.9338     6.4888     2.9495 C.ar    
  20 C20            3.7288     5.7486     1.7876 C.ar    
  21 O21            2.6933     5.0973    -1.4369 O.2     
  22 C22            2.5690     7.4231     0.2931 C.3     
  23 C23            1.0934     7.4452     0.6967 C.3     
  24 C24            0.5049     8.8266     0.4031 C.3     
  25 C25           -0.9707     8.8487     0.8066 C.3     
  26 C26           -1.5591    10.2302     0.5130 C.3     
  27 C27            5.2456     2.4239     2.7748 C.3     
  28 C28            6.6649     2.3693     2.2061 C.3     
  29 C29            7.6312     3.0453     3.1809 C.3     
  30 C30            7.0789     0.9098     2.0074 C.3     
  31 H31           -0.0221    -0.8186     2.1613 H       
  32 H32           -1.0550    -1.0745     0.7188 H       
  33 H33            3.7213    -0.4966    -0.2534 H       
  34 H34            0.9722     3.3925     1.0229 H       
  35 H35            5.9402     3.8569     0.0109 H       
  36 H36            4.9284     3.6390    -1.4558 H       
  37 H37            5.4699     4.1539     4.8398 H       
  38 H38            4.7134     6.4944     4.9352 H       
  39 H39            3.6034     7.5158     2.9986 H       
  40 H40            3.1125     8.1778     0.8616 H       
  41 H41            2.6576     7.6369    -0.7721 H       
  42 H42            0.5499     6.6905     0.1282 H       
  43 H43            1.0048     7.2314     1.7618 H       
  44 H44            1.0484     9.5814     0.9715 H       
  45 H45            0.5935     9.0404    -0.6621 H       
  46 H46           -1.5142     8.0940     0.2382 H       
  47 H47           -1.0593     8.6350     1.8718 H       
  48 H48           -1.0157    10.9849     1.0815 H       
  49 H49           -1.4706    10.4439    -0.5522 H       
  50 H50           -2.6104    10.2459     0.8005 H       
  51 H51            5.2394     1.9976     3.7779 H       
  52 H52            4.5749     1.8525     2.1331 H       
  53 H53            6.6928     2.8885     1.2482 H       
  54 H54            7.6034     2.5261     4.1389 H       
  55 H55            8.6424     3.0064     2.7758 H       
  56 H56            7.3362     4.0851     3.3225 H       
  57 H57            6.3906     0.4282     1.3129 H       
  58 H58            8.0901     0.8710     1.6023 H       
  59 H59            7.0511     0.3906     2.9654 H       
@<TRIPOS>BOND
   1    1    2 1
   2    1    5 1
   3    2    3 1
   4    2   31 1
   5    2   32 1
   6    3    4 1
   7    4    5 ar
   8    4    6 ar
   9    5    9 ar
  10    6    7 ar
  11    6   33 1
  12    7    8 ar
  13    7   10 1
  14    8    9 ar
  15    8   11 1
  16    9   34 1
  17   10   12 1
  18   11   12 1
  19   11   14 1
  20   11   15 1
  21   12   35 1
  22   12   36 1
  23   13   14 am
  24   13   20 1
  25   13   22 1
  26   14   21 2
  27   15   16 ar
  28   15   20 ar
  29   16   17 ar
  30   16   27 1
  31   17   18 ar
  32   17   37 1
  33   18   19 ar
  34   18   38 1
  35   19   20 ar
  36   19   39 1
  37   22   23 1
  38   22   40 1
  39   22   41 1
  40   23   24 1
  41   23   42 1
  42   23   43 1
  43   24   25 1
  44   24   44 1
  45   24   45 1
  46   25   26 1
  47   25   46 1
  48   25   47 1
  49   26   48 1
  50   26   49 1
  51   26   50 1
  52   27   28 1
  53   27   51 1
  54   27   52 1
  55   28   29 1
  56   28   30 1
  57   28   53 1
  58   29   54 1
  59   29   55 1
  60   29   56 1
  61   30   57 1
  62   30   58 1
  63   30   59 1

#	End of record

