#	Name: ASD02198159
#	Creating user name:	WinNT
#	Creation time:	15. 06. 2019 20:18

#	Modifying user name:	WinNT
#	Modification time:	15. 06. 2019 20:18

#	Program:	/corina/corina34_cracker 3.40 0067  02.08.2006

@<TRIPOS>MOLECULE
ASD02198159
  45   47    0    0    0
SMALL
NO_CHARGES


@<TRIPOS>ATOM
   1 C1            -0.1304     1.4046    -0.5005 C.2     
   2 C2            -0.0051     0.0327    -0.4487 C.2     
   3 C3            -1.1135    -0.8443    -0.2190 C.1     
   4 S4             1.3793     2.1422    -0.7899 S.3     
   5 C5             2.2009     0.5909    -0.8440 C.2     
   6 C6             1.2978    -0.4236    -0.6406 C.2     
   7 C7             3.5823     0.4134    -1.0637 C.2     
   8 C8             4.4321     1.5739    -1.3939 C.ar    
   9 O9             4.0749    -0.6994    -0.9808 O.2     
  10 N10            1.6470    -1.7658    -0.6266 N.pl3   
  11 N11           -1.3157     2.0868    -0.3454 N.pl3   
  12 N12           -1.9928    -1.5401    -0.0367 N.1     
  13 C13            5.2729     2.1259    -0.4242 C.ar    
  14 C14            6.0646     3.2081    -0.7359 C.ar    
  15 C15            6.0305     3.7556    -2.0141 C.ar    
  16 C16            5.1991     3.2149    -2.9843 C.ar    
  17 C17            4.4030     2.1233    -2.6841 C.ar    
  18 C18           -1.3162     3.4834    -0.2894 C.ar    
  19 C19           -2.3649     4.2015    -0.8532 C.ar    
  20 C20           -2.3703     5.5825    -0.8001 C.ar    
  21 C21           -1.3347     6.2586    -0.1874 C.ar    
  22 C22           -0.2766     5.5470     0.3820 C.ar    
  23 C23           -0.2739     4.1525     0.3334 C.ar    
  24 O24            3.5894     1.5928    -3.6318 O.3     
  25 C25            3.6044     2.2114    -4.9199 C.3     
  26 C26            0.7994     6.2459     1.0179 C.1     
  27 N27            1.6530     6.8003     1.5224 N.1     
  28 O28            6.8136     4.8233    -2.3134 O.3     
  29 C29            7.6456     5.3309    -1.2683 C.3     
  30 H30            2.5705    -2.0281    -0.7651 H       
  31 H31            0.9677    -2.4421    -0.4782 H       
  32 H32           -2.1508     1.5983    -0.2750 H       
  33 H33            5.3015     1.7040     0.5696 H       
  34 H34            6.7140     3.6337     0.0147 H       
  35 H35            5.1758     3.6437    -3.9752 H       
  36 H36           -3.1778     3.6783    -1.3346 H       
  37 H37           -3.1877     6.1347    -1.2398 H       
  38 H38           -1.3424     7.3378    -0.1486 H       
  39 H39            0.5416     3.5966     0.7720 H       
  40 H40            3.3027     3.2546    -4.8255 H       
  41 H41            4.6107     2.1604    -5.3358 H       
  42 H42            2.9113     1.6911    -5.5809 H       
  43 H43            7.0241     5.6489    -0.4312 H       
  44 H44            8.3297     4.5498    -0.9367 H       
  45 H45            8.2175     6.1811    -1.6398 H       
@<TRIPOS>BOND
   1    1    2 2
   2    1    4 1
   3    1   11 1
   4    2    3 1
   5    2    6 1
   6    3   12 3
   7    4    5 1
   8    5    6 2
   9    5    7 1
  10    6   10 1
  11    7    8 1
  12    7    9 2
  13    8   13 ar
  14    8   17 ar
  15   10   30 1
  16   10   31 1
  17   11   18 1
  18   11   32 1
  19   13   14 ar
  20   13   33 1
  21   14   15 ar
  22   14   34 1
  23   15   16 ar
  24   15   28 1
  25   16   17 ar
  26   16   35 1
  27   17   24 1
  28   18   19 ar
  29   18   23 ar
  30   19   20 ar
  31   19   36 1
  32   20   21 ar
  33   20   37 1
  34   21   22 ar
  35   21   38 1
  36   22   23 ar
  37   22   26 1
  38   23   39 1
  39   24   25 1
  40   25   40 1
  41   25   41 1
  42   25   42 1
  43   26   27 3
  44   28   29 1
  45   29   43 1
  46   29   44 1
  47   29   45 1

#	End of record

