#	Name: ASD07300504
#	Creating user name:	WinNT
#	Creation time:	15. 06. 2019 21:09

#	Modifying user name:	WinNT
#	Modification time:	15. 06. 2019 21:09

#	Program:	/corina/corina34_cracker 3.40 0067  02.08.2006

@<TRIPOS>MOLECULE
ASD07300504
  26   28    0    0    0
SMALL
NO_CHARGES


@<TRIPOS>ATOM
   1 C1            -0.0169     1.3924     0.0097 C.ar    
   2 C2             0.0021    -0.0041     0.0020 C.ar    
   3 C3             1.2213    -0.6641    -0.0132 C.ar    
   4 C4             2.3812     0.0972    -0.0201 C.ar    
   5 C5             2.2871     1.4758    -0.0118 C.ar    
   6 N6             1.1135     2.0783     0.0026 N.ar    
   7 O7            -1.2841    -0.4275     0.0120 O.3     
   8 C8            -2.0969     0.6412     0.0255 C.2     
   9 N9            -1.3574     1.7676     0.0301 N.am    
  10 O10           -3.3119     0.5991     0.0369 O.2     
  11 C11           -1.8489     3.0796     0.0438 C.ar    
  12 C12           -3.2181     3.3094     0.0639 C.ar    
  13 C13           -3.6996     4.6039     0.0779 C.ar    
  14 C14           -2.8195     5.6705     0.0719 C.ar    
  15 C15           -1.4554     5.4449     0.0515 C.ar    
  16 C16           -0.9677     4.1527     0.0432 C.ar    
  17 N17           -3.3388     7.0565     0.0869 N.pl3   
  18 O18           -4.5401     7.2567     0.1045 O.2     
  19 O19           -2.5647     7.9969     0.0817 O.2     
  20 H20            1.2669    -1.7431    -0.0190 H       
  21 H21            3.3485    -0.3830    -0.0316 H       
  22 H22            3.1890     2.0699    -0.0172 H       
  23 H23           -3.9059     2.4768     0.0682 H       
  24 H24           -4.7645     4.7832     0.0931 H       
  25 H25           -0.7705     6.2799     0.0462 H       
  26 H26            0.0978     3.9771     0.0318 H       
@<TRIPOS>BOND
   1    1    2 ar
   2    1    6 ar
   3    1    9 1
   4    2    3 ar
   5    2    7 1
   6    3    4 ar
   7    3   20 1
   8    4    5 ar
   9    4   21 1
  10    5    6 ar
  11    5   22 1
  12    7    8 1
  13    8    9 am
  14    8   10 2
  15    9   11 1
  16   11   12 ar
  17   11   16 ar
  18   12   13 ar
  19   12   23 1
  20   13   14 ar
  21   13   24 1
  22   14   15 ar
  23   14   17 1
  24   15   16 ar
  25   15   25 1
  26   16   26 1
  27   17   18 2
  28   17   19 2

#	End of record

