#	Name: ASD04570055
#	Creating user name:	WinNT
#	Creation time:	15. 06. 2019 20:50

#	Modifying user name:	WinNT
#	Modification time:	15. 06. 2019 20:50

#	Program:	/corina/corina34_cracker 3.40 0067  02.08.2006

@<TRIPOS>MOLECULE
ASD04570055
 328  328    0    0    0
SMALL
NO_CHARGES


@<TRIPOS>ATOM
   1 C1            -0.0187     1.5258     0.0104 C.3     
   2 C2             0.0021    -0.0041     0.0020 C.3     
   3 C3            -1.4333    -0.5336     0.0129 C.3     
   4 C4            -1.4126    -2.0635     0.0045 C.3     
   5 C5            -2.8479    -2.5931     0.0153 C.3     
   6 C6            -2.8272    -4.1229     0.0069 C.3     
   7 C7            -4.2626    -4.6525     0.0178 C.3     
   8 C8            -4.2418    -6.1823     0.0094 C.3     
   9 C9            -5.6772    -6.7119     0.0202 C.3     
  10 C10           -5.6565    -8.2417     0.0118 C.3     
  11 C11           -7.0918    -8.7713     0.0227 C.3     
  12 C12           -7.0711   -10.3012     0.0143 C.3     
  13 C13           -8.5065   -10.8307     0.0251 C.3     
  14 C14           -8.4857   -12.3606     0.0167 C.3     
  15 S15          -10.1876   -12.9885     0.0296 S.o2    
  16 N16          -10.0203   -14.6359     0.0191 N.am    
  17 O17          -10.8133   -12.7076     1.2741 O.2     
  18 C18           -9.4018   -15.3167     1.1595 C.3     
  19 C19           -9.6942   -16.7930     1.0821 C.2     
  20 N20           -9.2223   -17.6241     2.0324 N.am    
  21 O21          -10.3542   -17.2332     0.1648 O.2     
  22 C22           -9.5066   -19.0593     1.9572 C.3     
  23 C23           -8.8705   -19.7595     3.1302 C.2     
  24 N24           -9.0004   -21.0937     3.2700 N.am    
  25 O25           -8.2416   -19.1225     3.9485 O.2     
  26 C26           -8.3820   -21.7744     4.4104 C.3     
  27 C27           -9.1280   -23.0519     4.6977 C.2     
  28 O28          -10.0823   -23.3632     4.0169 O.2     
  29 N29           -8.7347   -23.8486     5.7112 N.am    
  30 C30           -6.9234   -22.0986     4.0811 C.3     
  31 C31           -6.1492   -20.8165     3.9144 C.ar    
  32 C32           -5.5322   -20.2358     5.0070 C.ar    
  33 C33           -9.4599   -25.0905     5.9905 C.3     
  34 C34          -10.6614   -24.7886     6.8883 C.3     
  35 C35           -8.5428   -26.0617     6.6882 C.2     
  36 O36           -7.3964   -25.7474     6.9285 O.2     
  37 N37           -8.9967   -27.2795     7.0452 N.am    
  38 C38          -11.6531   -23.9021     6.1323 C.3     
  39 C39          -12.8365   -23.6047     7.0167 C.2     
  40 N40          -13.8440   -22.8358     6.5583 N.am    
  41 C41           -8.1052   -28.2236     7.7235 C.3     
  42 C42           -8.1127   -27.9417     9.2273 C.3     
  43 C43           -8.5809   -29.6316     7.4739 C.2     
  44 O44           -9.5675   -29.8272     6.7962 O.2     
  45 N45           -7.9100   -30.6735     8.0039 N.am    
  46 C46           -8.3725   -32.0422     7.7613 C.3     
  47 C47           -7.8925   -32.9511     8.8946 C.3     
  48 C48           -7.8152   -32.5360     6.4510 C.2     
  49 C49           -8.5568   -32.5258    10.2056 C.3     
  50 C50           -8.0767   -33.4347    11.3389 C.3     
  51 C51           -4.8218   -19.0605     4.8568 C.ar    
  52 C52           -4.7279   -18.4629     3.6084 C.ar    
  53 C53           -5.3479   -19.0475     2.5136 C.ar    
  54 C54           -6.0523   -20.2258     2.6680 C.ar    
  55 O55           -4.0301   -17.3065     3.4581 O.3     
  56 O56          -12.8822   -24.0573     8.1410 O.2     
  57 C57           -8.7410   -33.0094    12.6499 C.3     
  58 N58           -8.2801   -33.8821    13.7380 N.3     
  59 C59            1.4167     2.0553    -0.0004 C.3     
  60 H60          -10.3317   -15.1503    -0.7420 H       
  61 C61           -7.5132   -26.5588     9.4899 C.3     
  62 C62           -7.5208   -26.2769    10.9937 C.3     
  63 C63           -6.9212   -24.8940    11.2564 C.3     
  64 N64           -6.9285   -24.6233    12.7002 N.3     
  65 C65           -8.4665   -33.6972     5.7450 C.3     
  66 O66           -6.8468   -32.0011     5.9669 O.2     
  67 O67          -10.8369   -12.6944    -1.1997 O.2     
  68 H68           -0.5459     1.8868    -0.8726 H       
  69 H69           -0.5289     1.8773     0.9072 H       
  70 H70            0.5123    -0.3556    -0.8948 H       
  71 H71            0.5293    -0.3651     0.8851 H       
  72 H72           -1.9435    -0.1821     0.9097 H       
  73 H73           -1.9605    -0.1726    -0.8702 H       
  74 H74           -0.9024    -2.4150    -0.8923 H       
  75 H75           -0.8854    -2.4246     0.8875 H       
  76 H76           -3.3581    -2.2415     0.9121 H       
  77 H77           -3.3751    -2.2320    -0.8677 H       
  78 H78           -2.3170    -4.4744    -0.8899 H       
  79 H79           -2.3000    -4.4840     0.8900 H       
  80 H80           -4.7728    -4.3010     0.9146 H       
  81 H81           -4.7898    -4.2914    -0.8653 H       
  82 H82           -3.7316    -6.5338    -0.8874 H       
  83 H83           -3.7146    -6.5434     0.8924 H       
  84 H84           -6.1874    -6.3604     0.9170 H       
  85 H85           -6.2044    -6.3508    -0.8628 H       
  86 H86           -5.1463    -8.5933    -0.8850 H       
  87 H87           -5.1293    -8.6028     0.8949 H       
  88 H88           -7.6020    -8.4198     0.9195 H       
  89 H89           -7.6190    -8.4102    -0.8604 H       
  90 H90           -6.5609   -10.6527    -0.8825 H       
  91 H91           -6.5439   -10.6622     0.8973 H       
  92 H92           -9.0167   -10.4792     0.9219 H       
  93 H93           -9.0337   -10.4697    -0.8579 H       
  94 H94           -7.9755   -12.7121    -0.8801 H       
  95 H95           -7.9586   -12.7217     0.8998 H       
  96 H96           -8.3237   -15.1581     1.1363 H       
  97 H97           -9.8084   -14.9139     2.0872 H       
  98 H98           -8.6945   -17.2720     2.7661 H       
  99 H99          -10.5847   -19.2179     1.9804 H       
 100 H100          -9.1000   -19.4621     1.0295 H       
 101 H101          -9.5034   -21.6032     2.6156 H       
 102 H102          -8.4214   -21.1260     5.2856 H       
 103 H103          -7.9715   -23.5997     6.2556 H       
 104 H104          -6.4889   -22.6826     4.8925 H       
 105 H105          -6.8788   -22.6729     3.1558 H       
 106 H106          -5.6059   -20.7013     5.9788 H       
 107 H107          -9.8068   -25.5271     5.0539 H       
 108 H108         -11.1492   -25.7222     7.1687 H       
 109 H109         -10.3231   -24.2715     7.7863 H       
 110 H110          -9.9137   -27.5308     6.8530 H       
 111 H111         -11.1653   -22.9685     5.8520 H       
 112 H112         -11.9914   -24.4192     5.2344 H       
 113 H113         -13.8074   -22.4738     5.6591 H       
 114 H114         -14.6057   -22.6444     7.1275 H       
 115 H115          -7.0924   -28.1085     7.3373 H       
 116 H116          -9.1377   -27.9695     9.5970 H       
 117 H117          -7.5202   -28.6983     9.7417 H       
 118 H118          -7.1210   -30.5170     8.5459 H       
 119 H119          -9.4617   -32.0560     7.7211 H       
 120 H120          -8.1597   -33.9838     8.6701 H       
 121 H121          -6.8100   -32.8691     8.9924 H       
 122 H122          -8.2895   -31.4932    10.4300 H       
 123 H123          -9.6392   -32.6079    10.1077 H       
 124 H124          -8.3440   -34.4674    11.1144 H       
 125 H125          -6.9942   -33.3527    11.4367 H       
 126 H126          -4.3403   -18.6072     5.7107 H       
 127 H127          -5.2763   -18.5842     1.5407 H       
 128 H128          -6.5349   -20.6816     1.8161 H       
 129 H129          -3.0951   -17.4358     3.2477 H       
 130 H130          -8.4737   -31.9768    12.8743 H       
 131 H131          -9.8235   -33.0915    12.5520 H       
 132 H132          -8.7049   -33.6213    14.6152 H       
 133 H133          -8.4585   -34.8519    13.5240 H       
 134 H134           1.9269     1.7038    -0.8972 H       
 135 H135           1.4019     3.1452     0.0056 H       
 136 H136           1.9439     1.6943     0.8826 H       
 137 H137          -6.4882   -26.5310     9.1202 H       
 138 H138          -8.1057   -25.8022     8.9755 H       
 139 H139          -8.5457   -26.3047    11.3634 H       
 140 H140          -6.9283   -27.0335    11.5082 H       
 141 H141          -5.8962   -24.8661    10.8866 H       
 142 H142          -7.5137   -24.1374    10.7419 H       
 143 H143          -6.5371   -23.7150    12.8998 H       
 144 H144          -7.8599   -24.7069    13.0791 H       
 145 H145          -9.5018   -33.4472     5.5133 H       
 146 H146          -7.9282   -33.9087     4.8210 H       
 147 H147          -8.4404   -34.5755     6.3899 H       
 148 C148          26.5791    33.3596    21.5878 C.3     
 149 C149          25.6405    32.1941    21.7654 C.2     
 150 N150          25.0279    31.9965    22.9495 N.am    
 151 C151          24.1154    30.8635    23.1222 C.3     
 152 C152          23.1306    31.1743    24.2197 C.2     
 153 N153          22.1888    30.2707    24.5558 N.am    
 154 C154          21.2315    30.5728    25.6228 C.3     
 155 C155          20.7242    29.2864    26.2217 C.2     
 156 N156          19.8273    29.3187    27.2272 N.am    
 157 O157          21.1231    28.2219    25.7990 O.2     
 158 C158          19.3342    28.0681    27.8094 C.3     
 159 C159          18.8740    28.3189    29.2223 C.2     
 160 C160          18.1622    27.5450    26.9766 C.3     
 161 N161          18.3775    27.3055    29.9593 N.am    
 162 O162          18.9504    29.4326    29.6963 O.2     
 163 C163          17.9302    27.5493    31.3328 C.3     
 164 C164          18.0080    26.2675    32.1215 C.2     
 165 N165          17.6434    26.2514    33.4189 N.am    
 166 O166          18.3986    25.2505    31.5886 O.2     
 167 C167          17.8197    25.0337    34.2142 C.3     
 168 C168          16.6450    24.1157    33.9944 C.2     
 169 O169          15.7488    24.4460    33.2471 O.2     
 170 N170          16.5904    22.9276    34.6284 N.am    
 171 C171          15.4484    22.0352    34.4148 C.3     
 172 C172          14.3114    22.4265    35.3608 C.3     
 173 C173          15.8640    20.6130    34.6901 C.2     
 174 O174          17.0020    20.3689    35.0312 O.2     
 175 N175          14.9710    19.6123    34.5573 N.am    
 176 C176          15.3749    18.2297    34.8249 C.3     
 177 C177          15.2524    17.9435    36.3229 C.3     
 178 C178          14.4817    17.2882    34.0589 C.2     
 179 O179          13.5951    17.7287    33.3583 O.2     
 180 N180          14.6683    15.9567    34.1522 N.am    
 181 C181          13.8000    15.0414    33.4075 C.3     
 182 C182          12.5295    14.7722    34.2164 C.3     
 183 C183          14.5269    13.7434    33.1671 C.2     
 184 O184          15.6588    13.5972    33.5775 O.2     
 185 N185          13.9192    12.7449    32.4962 N.am    
 186 C186          11.7282    16.0684    34.3538 C.3     
 187 C187          10.4577    15.7992    35.1627 C.3     
 188 N188           9.6905    17.0403    35.2943 N.pl3   
 189 C189           8.5023    17.0438    35.9859 C.2     
 190 C190          16.4850    28.0514    31.3169 C.3     
 191 C191          16.3828    29.2827    30.4144 C.3     
 192 O192          15.6286    27.0223    30.8175 O.3     
 193 C193          17.9093    25.4014    35.6967 C.3     
 194 C194          19.1564    26.2121    35.9386 C.2     
 195 O195          19.4916    26.5712    37.1878 O.3     
 196 O196          19.8546    26.5389    35.0082 O.2     
 197 C197          13.8057    23.8245    34.9995 C.3     
 198 C198          12.6686    24.2158    35.9455 C.3     
 199 C199          12.1629    25.6139    35.5842 C.3     
 200 N200          11.0712    25.9896    36.4924 N.3     
 201 C201          16.2348    18.7995    37.0799 C.ar    
 202 C202          15.8586    20.0538    37.5238 C.ar    
 203 C203          17.5091    18.3270    37.3344 C.ar    
 204 C204          18.4114    19.1096    38.0285 C.ar    
 205 C205          18.0380    20.3705    38.4704 C.ar    
 206 C206          16.7573    20.8404    38.2179 C.ar    
 207 N207           7.7822    18.2085    36.1094 N.pl3   
 208 N208           8.0584    15.9430    36.5244 N.2     
 209 C209          20.0566    31.3644    25.0447 C.3     
 210 O210          19.3421    30.5464    24.1162 O.3     
 211 O211          23.1856    32.2376    24.8005 O.2     
 212 C212          24.9174    29.6150    23.4950 C.3     
 213 C213          25.8285    29.2269    22.3288 C.3     
 214 C214          26.6305    27.9784    22.7017 C.3     
 215 N215          27.5029    27.6068    21.5849 N.pl3   
 216 C216          28.3235    26.5088    21.6896 C.2     
 217 N217          29.1422    26.1600    20.6416 N.pl3   
 218 N218          28.3253    25.7983    22.7824 N.2     
 219 O219          25.4363    31.4339    20.8427 O.2     
 220 C220          14.6258    11.4831    32.2625 C.3     
 221 C221          15.4748    11.6048    31.0233 C.2     
 222 C222          13.6084    10.3559    32.0749 C.3     
 223 C223          12.8451    10.1350    33.3825 C.3     
 224 N224          16.2191    10.5595    30.6111 N.am    
 225 O225          15.4882    12.6433    30.3971 O.2     
 226 C226          11.7304     9.1118    33.1557 C.3     
 227 O227          18.9237    21.1421    39.1538 O.3     
 228 N228          27.5542    33.0470    20.5345 N.3     
 229 C229          25.7798    34.6022    21.1903 C.3     
 230 C230          28.7101    32.3261    21.0843 C.3     
 231 C231          26.7191    35.8069    21.1043 C.3     
 232 C232          25.9500    37.0160    20.5683 C.3     
 233 C233          27.2667    36.1270    22.4966 C.3     
 234 C234          13.8065     9.6132    34.4522 C.3     
 235 H235          27.1040    33.5494    22.5241 H       
 236 H236          25.1912    32.6045    23.6875 H       
 237 H237          23.5775    30.6851    22.1911 H       
 238 H238          22.1449    29.4203    24.0913 H       
 239 H239          21.7230    31.1643    26.3953 H       
 240 H240          19.5083    30.1700    27.5653 H       
 241 H241          20.1352    27.3288    27.8140 H       
 242 H242          18.4950    27.3636    25.9546 H       
 243 H243          17.7953    26.6145    27.4098 H       
 244 H244          17.3612    28.2843    26.9720 H       
 245 H245          18.3164    26.4147    29.5802 H       
 246 H246          18.5706    28.3001    31.7957 H       
 247 H247          17.2643    27.0459    33.8260 H       
 248 H248          18.7368    24.5299    33.9087 H       
 249 H249          17.3072    22.6634    35.2262 H       
 250 H250          15.1083    22.1210    33.3828 H       
 251 H251          13.4962    21.7093    35.2653 H       
 252 H252          14.6769    22.4265    36.3877 H       
 253 H253          14.0608    19.8075    34.2845 H       
 254 H254          16.4087    18.0860    34.5109 H       
 255 H255          14.2397    18.1724    36.6549 H       
 256 H256          15.4671    16.8914    36.5105 H       
 257 H257          15.3774    15.6044    34.7125 H       
 258 H258          13.5333    15.4910    32.4510 H       
 259 H259          11.9247    14.0237    33.7045 H       
 260 H260          12.8000    14.4056    35.2066 H       
 261 H261          13.0139    12.8618    32.1680 H       
 262 H262          12.3331    16.8169    34.8657 H       
 263 H263          11.4577    16.4350    33.3636 H       
 264 H264           9.8529    15.0507    34.6508 H       
 265 H265          10.7283    15.4325    36.1529 H       
 266 H266          10.0208    17.8595    34.8935 H       
 267 H267          16.1815    28.3170    32.3296 H       
 268 H268          16.6863    29.0171    29.4018 H       
 269 H269          15.3532    29.6404    30.4031 H       
 270 H270          17.0360    30.0677    30.7954 H       
 271 H271          15.8410    26.7356    29.9187 H       
 272 H272          17.0347    25.9872    35.9792 H       
 273 H273          17.9459    24.4912    36.2952 H       
 274 H274          20.3003    27.0908    37.2932 H       
 275 H275          14.6209    24.5417    35.0950 H       
 276 H276          13.4402    23.8245    33.9726 H       
 277 H277          11.8534    23.4986    35.8500 H       
 278 H278          13.0341    24.2158    36.9724 H       
 279 H279          12.9781    26.3311    35.6797 H       
 280 H280          11.7974    25.6139    34.5573 H       
 281 H281          10.7197    26.9099    36.2741 H       
 282 H282          10.3304    25.3049    36.4701 H       
 283 H283          14.8613    20.4189    37.3273 H       
 284 H284          17.7991    17.3452    36.9905 H       
 285 H285          19.4065    18.7399    38.2273 H       
 286 H286          16.4643    21.8217    38.5609 H       
 287 H287           8.1126    19.0277    35.7086 H       
 288 H288           6.9439    18.2110    36.5973 H       
 289 H289           7.2200    15.9455    37.0124 H       
 290 H290          19.3892    31.6656    25.8521 H       
 291 H291          20.4322    32.2510    24.5339 H       
 292 H292          18.5821    30.9847    23.7095 H       
 293 H293          25.5241    29.8227    24.3765 H       
 294 H294          24.2330    28.7944    23.7101 H       
 295 H295          25.2219    29.0192    21.4473 H       
 296 H296          26.5129    30.0476    22.1137 H       
 297 H297          27.2371    28.1861    23.5831 H       
 298 H298          25.9461    27.1578    22.9168 H       
 299 H299          27.5015    28.1355    20.7717 H       
 300 H300          29.1408    26.6887    19.8283 H       
 301 H301          29.7212    25.3853    20.7154 H       
 302 H302          28.9043    25.0236    22.8562 H       
 303 H303          15.2624    11.2592    33.1185 H       
 304 H304          12.9068    10.6273    31.2861 H       
 305 H305          14.1288     9.4389    31.7987 H       
 306 H306          12.4107    11.0783    33.7134 H       
 307 H307          16.2083     9.7289    31.1120 H       
 308 H308          16.7656    10.6379    29.8135 H       
 309 H309          11.1331     9.0183    34.0627 H       
 310 H310          11.0947     9.4431    32.3345 H       
 311 H311          12.1693     8.1452    32.9084 H       
 312 H312          19.4620    21.7154    38.5910 H       
 313 H313          27.1237    32.5235    19.7870 H       
 314 H314          25.3105    34.4374    20.2204 H       
 315 H315          25.0105    34.7940    21.9383 H       
 316 H316          29.3739    32.0305    20.2719 H       
 317 H317          29.2481    32.9753    21.7752 H       
 318 H318          28.3659    31.4377    21.6138 H       
 319 H319          27.5461    35.5756    20.4329 H       
 320 H320          25.1769    37.3005    21.2822 H       
 321 H321          26.6374    37.8498    20.4257 H       
 322 H322          25.4876    36.7592    19.6152 H       
 323 H323          27.8147    35.2656    22.8784 H       
 324 H324          27.9359    36.9852    22.4353 H       
 325 H325          26.4398    36.3583    23.1680 H       
 326 H326          14.6006    10.3422    34.6138 H       
 327 H327          13.2627     9.4559    35.3837 H       
 328 H328          14.2409     8.6699    34.1213 H       
@<TRIPOS>BOND
   1    1    2 1
   2    1   59 1
   3    1   68 1
   4    1   69 1
   5    2    3 1
   6    2   70 1
   7    2   71 1
   8    3    4 1
   9    3   72 1
  10    3   73 1
  11    4    5 1
  12    4   74 1
  13    4   75 1
  14    5    6 1
  15    5   76 1
  16    5   77 1
  17    6    7 1
  18    6   78 1
  19    6   79 1
  20    7    8 1
  21    7   80 1
  22    7   81 1
  23    8    9 1
  24    8   82 1
  25    8   83 1
  26    9   10 1
  27    9   84 1
  28    9   85 1
  29   10   11 1
  30   10   86 1
  31   10   87 1
  32   11   12 1
  33   11   88 1
  34   11   89 1
  35   12   13 1
  36   12   90 1
  37   12   91 1
  38   13   14 1
  39   13   92 1
  40   13   93 1
  41   14   15 1
  42   14   94 1
  43   14   95 1
  44   15   16 am
  45   15   17 2
  46   15   67 2
  47   16   18 1
  48   16   60 1
  49   18   19 1
  50   18   96 1
  51   18   97 1
  52   19   20 am
  53   19   21 2
  54   20   22 1
  55   20   98 1
  56   22   23 1
  57   22   99 1
  58   22  100 1
  59   23   24 am
  60   23   25 2
  61   24   26 1
  62   24  101 1
  63   26   27 1
  64   26   30 1
  65   26  102 1
  66   27   28 2
  67   27   29 am
  68   29   33 1
  69   29  103 1
  70   30   31 1
  71   30  104 1
  72   30  105 1
  73   31   32 ar
  74   31   54 ar
  75   32   51 ar
  76   32  106 1
  77   33   34 1
  78   33   35 1
  79   33  107 1
  80   34   38 1
  81   34  108 1
  82   34  109 1
  83   35   36 2
  84   35   37 am
  85   37   41 1
  86   37  110 1
  87   38   39 1
  88   38  111 1
  89   38  112 1
  90   39   40 am
  91   39   56 2
  92   40  113 1
  93   40  114 1
  94   41   42 1
  95   41   43 1
  96   41  115 1
  97   42   61 1
  98   42  116 1
  99   42  117 1
 100   43   44 2
 101   43   45 am
 102   45   46 1
 103   45  118 1
 104   46   47 1
 105   46   48 1
 106   46  119 1
 107   47   49 1
 108   47  120 1
 109   47  121 1
 110   48   65 1
 111   48   66 2
 112   49   50 1
 113   49  122 1
 114   49  123 1
 115   50   57 1
 116   50  124 1
 117   50  125 1
 118   51   52 ar
 119   51  126 1
 120   52   53 ar
 121   52   55 1
 122   53   54 ar
 123   53  127 1
 124   54  128 1
 125   55  129 1
 126   57   58 1
 127   57  130 1
 128   57  131 1
 129   58  132 1
 130   58  133 1
 131   59  134 1
 132   59  135 1
 133   59  136 1
 134   61   62 1
 135   61  137 1
 136   61  138 1
 137   62   63 1
 138   62  139 1
 139   62  140 1
 140   63   64 1
 141   63  141 1
 142   63  142 1
 143   64  143 1
 144   64  144 1
 145   65  145 1
 146   65  146 1
 147   65  147 1
 148  148  149 1
 149  148  228 1
 150  148  229 1
 151  148  235 1
 152  149  150 am
 153  149  219 2
 154  150  151 1
 155  150  236 1
 156  151  152 1
 157  151  212 1
 158  151  237 1
 159  152  153 am
 160  152  211 2
 161  153  154 1
 162  153  238 1
 163  154  155 1
 164  154  209 1
 165  154  239 1
 166  155  156 am
 167  155  157 2
 168  156  158 1
 169  156  240 1
 170  158  159 1
 171  158  160 1
 172  158  241 1
 173  159  161 am
 174  159  162 2
 175  160  242 1
 176  160  243 1
 177  160  244 1
 178  161  163 1
 179  161  245 1
 180  163  164 1
 181  163  190 1
 182  163  246 1
 183  164  165 am
 184  164  166 2
 185  165  167 1
 186  165  247 1
 187  167  168 1
 188  167  193 1
 189  167  248 1
 190  168  169 2
 191  168  170 am
 192  170  171 1
 193  170  249 1
 194  171  172 1
 195  171  173 1
 196  171  250 1
 197  172  197 1
 198  172  251 1
 199  172  252 1
 200  173  174 2
 201  173  175 am
 202  175  176 1
 203  175  253 1
 204  176  177 1
 205  176  178 1
 206  176  254 1
 207  177  201 1
 208  177  255 1
 209  177  256 1
 210  178  179 2
 211  178  180 am
 212  180  181 1
 213  180  257 1
 214  181  182 1
 215  181  183 1
 216  181  258 1
 217  182  186 1
 218  182  259 1
 219  182  260 1
 220  183  184 2
 221  183  185 am
 222  185  220 1
 223  185  261 1
 224  186  187 1
 225  186  262 1
 226  186  263 1
 227  187  188 1
 228  187  264 1
 229  187  265 1
 230  188  189 1
 231  188  266 1
 232  189  207 1
 233  189  208 2
 234  190  191 1
 235  190  192 1
 236  190  267 1
 237  191  268 1
 238  191  269 1
 239  191  270 1
 240  192  271 1
 241  193  194 1
 242  193  272 1
 243  193  273 1
 244  194  195 1
 245  194  196 2
 246  195  274 1
 247  197  198 1
 248  197  275 1
 249  197  276 1
 250  198  199 1
 251  198  277 1
 252  198  278 1
 253  199  200 1
 254  199  279 1
 255  199  280 1
 256  200  281 1
 257  200  282 1
 258  201  202 ar
 259  201  203 ar
 260  202  206 ar
 261  202  283 1
 262  203  204 ar
 263  203  284 1
 264  204  205 ar
 265  204  285 1
 266  205  206 ar
 267  205  227 1
 268  206  286 1
 269  207  287 1
 270  207  288 1
 271  208  289 1
 272  209  210 1
 273  209  290 1
 274  209  291 1
 275  210  292 1
 276  212  213 1
 277  212  293 1
 278  212  294 1
 279  213  214 1
 280  213  295 1
 281  213  296 1
 282  214  215 1
 283  214  297 1
 284  214  298 1
 285  215  216 1
 286  215  299 1
 287  216  217 1
 288  216  218 2
 289  217  300 1
 290  217  301 1
 291  218  302 1
 292  220  221 1
 293  220  222 1
 294  220  303 1
 295  221  224 am
 296  221  225 2
 297  222  223 1
 298  222  304 1
 299  222  305 1
 300  223  226 1
 301  223  234 1
 302  223  306 1
 303  224  307 1
 304  224  308 1
 305  226  309 1
 306  226  310 1
 307  226  311 1
 308  227  312 1
 309  228  230 1
 310  228  313 1
 311  229  231 1
 312  229  314 1
 313  229  315 1
 314  230  316 1
 315  230  317 1
 316  230  318 1
 317  231  232 1
 318  231  233 1
 319  231  319 1
 320  232  320 1
 321  232  321 1
 322  232  322 1
 323  233  323 1
 324  233  324 1
 325  233  325 1
 326  234  326 1
 327  234  327 1
 328  234  328 1

#	End of record

