#	Name: ASD02560256
#	Creating user name:	WinNT
#	Creation time:	15. 06. 2019 20:24

#	Modifying user name:	WinNT
#	Modification time:	15. 06. 2019 20:24

#	Program:	/corina/corina34_cracker 3.40 0067  02.08.2006

@<TRIPOS>MOLECULE
ASD02560256
  32   34    0    0    0
SMALL
NO_CHARGES


@<TRIPOS>ATOM
   1 C1            -0.0092     1.3381     0.0874 C.2     
   2 O2            -0.0095     0.0041    -0.1011 O.3     
   3 C3            -1.2759    -0.4057     0.0991 C.2     
   4 N4            -1.9860     0.6558     0.3939 N.2     
   5 N5            -1.2237     1.6922     0.3905 N.2     
   6 N6            -1.7414    -1.7055     0.0102 N.pl3   
   7 C7             1.1830     2.2530    -0.0257 C.3     
   8 C8             1.8609     2.3630     1.3156 C.ar    
   9 C9             2.8650     1.4764     1.6574 C.ar    
  10 C10            3.4868     1.5773     2.8878 C.ar    
  11 C11            3.1049     2.5649     3.7764 C.ar    
  12 C12            2.1015     3.4521     3.4343 C.ar    
  13 C13            1.4826     3.3539     2.2021 C.ar    
  14 C14           -3.1093    -1.9676     0.1279 C.ar    
  15 C15           -4.0375    -1.0112    -0.2639 C.ar    
  16 C16           -5.3883    -1.2733    -0.1462 C.ar    
  17 C17           -5.8173    -2.4861     0.3614 C.ar    
  18 C18           -4.8959    -3.4404     0.7523 C.ar    
  19 C19           -3.5437    -3.1872     0.6316 C.ar    
  20 H20           -1.1185    -2.4350    -0.1338 H       
  21 H21            1.8842     1.8475    -0.7551 H       
  22 H22            0.8536     3.2407    -0.3485 H       
  23 H23            3.1634     0.7048     0.9632 H       
  24 H24            4.2708     0.8842     3.1551 H       
  25 H25            3.5903     2.6433     4.7380 H       
  26 H26            1.8029     4.2235     4.1286 H       
  27 H27            0.6987     4.0470     1.9348 H       
  28 H28           -3.7032    -0.0636    -0.6597 H       
  29 H29           -6.1105    -0.5302    -0.4506 H       
  30 H30           -6.8742    -2.6883     0.4530 H       
  31 H31           -5.2342    -4.3863     1.1486 H       
  32 H32           -2.8246    -3.9330     0.9367 H       
@<TRIPOS>BOND
   1    1    2 1
   2    1    7 1
   3    1    5 2
   4    2    3 1
   5    3    4 2
   6    3    6 1
   7    4    5 1
   8    6   14 1
   9    6   20 1
  10    7    8 1
  11    7   21 1
  12    7   22 1
  13    8    9 ar
  14    8   13 ar
  15    9   10 ar
  16    9   23 1
  17   10   11 ar
  18   10   24 1
  19   11   12 ar
  20   11   25 1
  21   12   13 ar
  22   12   26 1
  23   13   27 1
  24   14   15 ar
  25   14   19 ar
  26   15   16 ar
  27   15   28 1
  28   16   17 ar
  29   16   29 1
  30   17   18 ar
  31   17   30 1
  32   18   19 ar
  33   18   31 1
  34   19   32 1

#	End of record

