#	Name: ASD07931658
#	Creating user name:	WinNT
#	Creation time:	15. 06. 2019 21:13

#	Modifying user name:	WinNT
#	Modification time:	15. 06. 2019 21:13

#	Program:	/corina/corina34_cracker 3.40 0067  02.08.2006

@<TRIPOS>MOLECULE
ASD07931658
  55   60    0    0    0
SMALL
NO_CHARGES


@<TRIPOS>ATOM
   1 N1             0.2786     0.9863    -0.0020 N.pl3   
   2 C2             4.6450     8.0442     6.5799 C.3     
   3 N3             4.7989     7.2477     5.3599 N.am    
   4 N4             5.7098     6.2004     5.2000 N.2     
   5 C5             5.6192     5.6790     4.0110 C.2     
   6 C6             4.5630     6.4195     3.2839 C.2     
   7 C7             4.0767     7.4173     4.2315 C.2     
   8 O8             3.1991     8.2436     4.0401 O.2     
   9 C9             6.2970     4.5866     3.2868 C.ar    
  10 C10            5.9027     4.3190     1.9661 C.ar    
  11 N11            4.9027     5.0664     1.3659 N.pl3   
  12 C12            4.2619     6.0662     1.9918 C.2     
  13 C13            7.3039     3.8321     3.8848 C.ar    
  14 C14            7.9143     2.8176     3.1719 C.ar    
  15 C15            7.5274     2.5514     1.8688 C.ar    
  16 C16            6.5299     3.2922     1.2654 C.ar    
  17 C17            4.5264     4.7504    -0.0143 C.3     
  18 C18            3.3985     3.7510    -0.0111 C.ar    
  19 C19            2.0939     4.1833     0.1415 C.ar    
  20 C20            1.0581     3.2696     0.1447 C.ar    
  21 C21            1.3278     1.9160    -0.0054 C.ar    
  22 C22            2.6386     1.4850    -0.1584 C.ar    
  23 C23            3.6698     2.4040    -0.1665 C.ar    
  24 C24            0.4020    -0.3534    -0.1382 C.2     
  25 F25            6.1632     3.0209    -0.0062 F       
  26 C26           -0.8393    -0.8891    -0.0813 C.2     
  27 C27           -1.7521     0.1565     0.0954 C.2     
  28 N28           -1.0828     1.2799     0.1491 N.2     
  29 C29            4.2642     7.1270     7.7450 C.3     
  30 F30            7.6823     4.0912     5.1555 F       
  31 C31            5.9677     8.7455     6.9036 C.3     
  32 C32            5.8175     9.5117     8.2215 C.3     
  33 C33            5.3914     8.5378     9.3232 C.3     
  34 O34            4.1713     7.8972     8.9451 O.3     
  35 H35            3.8640     8.7900     6.4319 H       
  36 H36            3.4914     6.6087     1.4642 H       
  37 H37            8.6955     2.2308     3.6321 H       
  38 H38            8.0102     1.7569     1.3192 H       
  39 H39            4.2041     5.6604    -0.5204 H       
  40 H40            5.3845     4.3283    -0.5373 H       
  41 H41            1.8848     5.2363     0.2586 H       
  42 H42            0.0394     3.6078     0.2643 H       
  43 H43            2.8515     0.4327    -0.2753 H       
  44 H44            4.6897     2.0694    -0.2858 H       
  45 H45            1.3255    -0.8980    -0.2692 H       
  46 H46           -1.0826    -1.9385    -0.1590 H       
  47 H47           -2.8240     0.0538     0.1782 H       
  48 H48            3.3022     6.6577     7.5388 H       
  49 H49            5.0261     6.3569     7.8654 H       
  50 H50            6.7597     8.0030     7.0017 H       
  51 H51            6.2165     9.4423     6.1031 H       
  52 H52            6.7706     9.9686     8.4879 H       
  53 H53            5.0599    10.2871     8.1077 H       
  54 H54            6.1681     7.7861     9.4642 H       
  55 H55            5.2415     9.0849    10.2539 H       
@<TRIPOS>BOND
   1    1   24 1
   2    1   21 1
   3    1   28 1
   4    2    3 1
   5    2   31 1
   6    2   29 1
   7    2   35 1
   8    3    4 1
   9    3    7 am
  10    4    5 2
  11    5    6 1
  12    5    9 1
  13    6    7 1
  14    6   12 2
  15    7    8 2
  16    9   10 ar
  17    9   13 ar
  18   10   11 1
  19   10   16 ar
  20   11   12 1
  21   11   17 1
  22   12   36 1
  23   13   14 ar
  24   13   30 1
  25   14   15 ar
  26   14   37 1
  27   15   16 ar
  28   15   38 1
  29   16   25 1
  30   17   18 1
  31   17   39 1
  32   17   40 1
  33   18   19 ar
  34   18   23 ar
  35   19   20 ar
  36   19   41 1
  37   20   21 ar
  38   20   42 1
  39   21   22 ar
  40   22   23 ar
  41   22   43 1
  42   23   44 1
  43   24   26 2
  44   24   45 1
  45   26   27 1
  46   26   46 1
  47   27   28 2
  48   27   47 1
  49   29   34 1
  50   29   48 1
  51   29   49 1
  52   31   32 1
  53   31   50 1
  54   31   51 1
  55   32   33 1
  56   32   52 1
  57   32   53 1
  58   33   34 1
  59   33   54 1
  60   33   55 1

#	End of record

