#	Name: ASD05470002
#	Creating user name:	WinNT
#	Creation time:	15. 06. 2019 21:00

#	Modifying user name:	WinNT
#	Modification time:	15. 06. 2019 21:00

#	Program:	/corina/corina34_cracker 3.40 0067  02.08.2006

@<TRIPOS>MOLECULE
ASD05470002
  44   46    0    0    0
SMALL
NO_CHARGES


@<TRIPOS>ATOM
   1 C1            -0.0184     1.5078     0.0103 C.2     
   2 C2             0.0021    -0.0041     0.0020 C.3     
   3 C3             1.5045    -0.3516    -0.0142 C.3     
   4 N4             2.1563     0.9686    -0.0133 N.pl3   
   5 N5             1.1706     1.9534     0.0014 N.2     
   6 C6             1.8830    -1.1324     1.2179 C.ar    
   7 C7             2.0141    -2.5067     1.1509 C.ar    
   8 C8             2.3622    -3.2252     2.2840 C.ar    
   9 C9             2.5787    -2.5612     3.4852 C.ar    
  10 C10            2.4462    -1.1860     3.5465 C.ar    
  11 C11            2.1041    -0.4725     2.4122 C.ar    
  12 C12            3.5336     1.1960    -0.0253 C.ar    
  13 C13            4.0249     2.4963    -0.0230 C.ar    
  14 C14            5.3877     2.7182    -0.0343 C.ar    
  15 C15            6.2643     1.6486    -0.0484 C.ar    
  16 C16            5.7793     0.3524    -0.0507 C.ar    
  17 C17            4.4163     0.1233    -0.0336 C.ar    
  18 C18           -1.2627     2.3580     0.0210 C.3     
  19 C19           -0.8701     3.8367     0.0272 C.3     
  20 C20           -2.0968     2.0569    -1.2258 C.3     
  21 C21           -2.0846     2.0433     1.2726 C.3     
  22 O22            2.4912    -4.5772     2.2203 O.3     
  23 F23            2.9178    -3.2581     4.5919 F       
  24 Cl24           6.8838    -0.9868    -0.0684 Cl      
  25 H25           -0.4723    -0.3983     0.9007 H       
  26 H26           -0.4894    -0.3887    -0.8916 H       
  27 H27            1.7611    -0.9067    -0.9165 H       
  28 H28            1.8450    -3.0206     0.2161 H       
  29 H29            2.6138    -0.6686     4.4795 H       
  30 H30            2.0057     0.6019     2.4605 H       
  31 H31            3.3413     3.3323    -0.0127 H       
  32 H32            5.7695     3.7284    -0.0325 H       
  33 H33            7.3297     1.8253    -0.0580 H       
  34 H34            4.0380    -0.8883    -0.0313 H       
  35 H35           -0.2845     4.0608    -0.8645 H       
  36 H36           -1.7700     4.4516     0.0349 H       
  37 H37           -0.2758     4.0512     0.9154 H       
  38 H38           -2.3765     1.0034    -1.2301 H       
  39 H39           -2.9968     2.6718    -1.2180 H       
  40 H40           -1.5113     2.2810    -2.1174 H       
  41 H41           -1.4904     2.2578     2.1609 H       
  42 H42           -2.9846     2.6582     1.2804 H       
  43 H43           -2.3643     0.9899     1.2683 H       
  44 H44            3.3831    -4.8771     1.9971 H       
@<TRIPOS>BOND
   1    1    2 1
   2    1    5 2
   3    1   18 1
   4    2    3 1
   5    2   25 1
   6    2   26 1
   7    3    4 1
   8    3    6 1
   9    3   27 1
  10    4    5 1
  11    4   12 1
  12    6    7 ar
  13    6   11 ar
  14    7    8 ar
  15    7   28 1
  16    8    9 ar
  17    8   22 1
  18    9   10 ar
  19    9   23 1
  20   10   11 ar
  21   10   29 1
  22   11   30 1
  23   12   13 ar
  24   12   17 ar
  25   13   14 ar
  26   13   31 1
  27   14   15 ar
  28   14   32 1
  29   15   16 ar
  30   15   33 1
  31   16   17 ar
  32   16   24 1
  33   17   34 1
  34   18   19 1
  35   18   20 1
  36   18   21 1
  37   19   35 1
  38   19   36 1
  39   19   37 1
  40   20   38 1
  41   20   39 1
  42   20   40 1
  43   21   41 1
  44   21   42 1
  45   21   43 1
  46   22   44 1

#	End of record

