#	Name: ASD01478007
#	Creating user name:	WinNT
#	Creation time:	15. 06. 2019 19:21

#	Modifying user name:	WinNT
#	Modification time:	15. 06. 2019 19:21

#	Program:	/corina/corina34_cracker 3.40 0067  02.08.2006

@<TRIPOS>MOLECULE
ASD01478007
  83   86    0    0    0
SMALL
NO_CHARGES


@<TRIPOS>ATOM
   1 C1            -0.5113     1.5124    -1.8903 C.3     
   2 C2             1.6251     2.2405    -2.6660 C.2     
   3 O3             0.7760     2.1302    -1.6270 O.3     
   4 N4             2.8365     2.8043    -2.4895 N.am    
   5 O5             1.2993     1.8317    -3.7629 O.2     
   6 C6             3.4437     4.1994    -4.4043 C.3     
   7 C7             3.7603     2.9243    -3.6201 C.3     
   8 C8             5.1976     2.9894    -3.0996 C.3     
   9 C9             6.1687     2.9891    -4.2819 C.3     
  10 N10            7.5446     2.9192    -3.7837 N.am    
  11 S11            8.5776     4.1912    -4.0233 S.o2    
  12 C12            8.4087     5.2682    -2.6390 C.ar    
  13 C13            9.2104     5.0927    -1.5263 C.ar    
  14 C14            9.0800     5.9358    -0.4397 C.ar    
  15 C15            8.1436     6.9591    -0.4657 C.ar    
  16 C16            7.3404     7.1330    -1.5834 C.ar    
  17 C17            7.4787     6.2908    -2.6697 C.ar    
  18 O18            9.8930     3.6575    -3.9584 O.2     
  19 O19            8.0825     4.9036    -5.1487 O.2     
  20 C20            8.0067     1.7241    -3.0734 C.3     
  21 C21            8.0539     0.5412    -4.0427 C.3     
  22 C22            9.0767     0.8253    -5.1446 C.3     
  23 C23            8.4598    -0.7239    -3.2840 C.3     
  24 O24            5.3747     4.1855    -2.3380 O.3     
  25 C25           -0.4083     0.0208    -1.6686 C.3     
  26 O26           -1.2274    -0.6267    -2.6347 O.3     
  27 C27           -2.5601    -0.8488    -2.3411 C.3     
  28 C28           -3.2298     0.5166    -2.1158 C.3     
  29 C29           -2.7526     1.1506    -0.8368 C.3     
  30 C30           -1.5739     2.1085    -0.9354 C.3     
  31 C31           -4.7458     0.3071    -1.8525 C.3     
  32 C32           -5.0543     1.5501    -0.9751 C.3     
  33 O33           -3.8705     1.7555    -0.1799 O.3     
  34 O34            8.0130     7.7895     0.6021 O.3     
  35 C35            7.0286     8.8208     0.5054 C.3     
  36 C36            2.0732     4.0831    -5.0200 C.ar    
  37 C37            0.9620     4.5144    -4.3197 C.ar    
  38 C38           -0.2952     4.4077    -4.8845 C.ar    
  39 C39           -0.4412     3.8702    -6.1497 C.ar    
  40 C40            0.6700     3.4398    -6.8503 C.ar    
  41 C41            1.9277     3.5505    -6.2873 C.ar    
  42 H42           -0.8024     1.7065    -2.9227 H       
  43 H43            3.0966     3.1306    -1.6138 H       
  44 H44            3.4679     5.0558    -3.7304 H       
  45 H45            4.1853     4.3354    -5.1915 H       
  46 H46            3.6494     2.0590    -4.2734 H       
  47 H47            5.3946     2.1236    -2.4673 H       
  48 H48            5.9679     2.1261    -4.9167 H       
  49 H49            6.0376     3.9038    -4.8600 H       
  50 H50            9.9390     4.2957    -1.5064 H       
  51 H51            9.7061     5.7981     0.4294 H       
  52 H52            6.6107     7.9289    -1.6061 H       
  53 H53            6.8536     6.4258    -3.5400 H       
  54 H54            9.0034     1.9036    -2.6704 H       
  55 H55            7.3201     1.4981    -2.2576 H       
  56 H56            7.0698     0.3974    -4.4887 H       
  57 H57           10.0608     0.9691    -4.6986 H       
  58 H58            9.1103    -0.0174    -5.8351 H       
  59 H59            8.7875     1.7266    -5.6851 H       
  60 H60            7.7312    -0.9263    -2.4989 H       
  61 H61            8.4935    -1.5666    -3.9745 H       
  62 H62            9.4440    -0.5801    -2.8380 H       
  63 H63            5.2154     4.9975    -2.8383 H       
  64 H64            0.6267    -0.2989    -1.7898 H       
  65 H65           -0.7559    -0.2272    -0.6657 H       
  66 H66           -3.0405    -1.3620    -3.1741 H       
  67 H67           -2.6427    -1.4534    -1.4379 H       
  68 H68           -3.0593     1.1775    -2.9656 H       
  69 H69           -2.4373     0.3350    -0.1860 H       
  70 H70           -1.1365     2.2505     0.0528 H       
  71 H71           -1.9157     3.0676    -1.3243 H       
  72 H72           -5.3144     0.3297    -2.7822 H       
  73 H73           -4.9269    -0.6174    -1.3043 H       
  74 H74           -5.2424     2.4198    -1.6045 H       
  75 H75           -5.9125     1.3552    -0.3320 H       
  76 H76            6.0456     8.3725     0.3612 H       
  77 H77            7.0282     9.4099     1.4226 H       
  78 H78            7.2611     9.4668    -0.3412 H       
  79 H79            1.0761     4.9343    -3.3313 H       
  80 H80           -1.1633     4.7440    -4.3371 H       
  81 H81           -1.4235     3.7863    -6.5906 H       
  82 H82            0.5559     3.0196    -7.8386 H       
  83 H83            2.7962     3.2177    -6.8361 H       
@<TRIPOS>BOND
   1    1   25 1
   2    1    3 1
   3    1   30 1
   4    1   42 1
   5    2    3 1
   6    2    4 am
   7    2    5 2
   8    4    7 1
   9    4   43 1
  10    6    7 1
  11    6   36 1
  12    6   44 1
  13    6   45 1
  14    7    8 1
  15    7   46 1
  16    8    9 1
  17    8   24 1
  18    8   47 1
  19    9   10 1
  20    9   48 1
  21    9   49 1
  22   10   11 am
  23   10   20 1
  24   11   12 1
  25   11   18 2
  26   11   19 2
  27   12   13 ar
  28   12   17 ar
  29   13   14 ar
  30   13   50 1
  31   14   15 ar
  32   14   51 1
  33   15   16 ar
  34   15   34 1
  35   16   17 ar
  36   16   52 1
  37   17   53 1
  38   20   21 1
  39   20   54 1
  40   20   55 1
  41   21   22 1
  42   21   23 1
  43   21   56 1
  44   22   57 1
  45   22   58 1
  46   22   59 1
  47   23   60 1
  48   23   61 1
  49   23   62 1
  50   24   63 1
  51   25   26 1
  52   25   64 1
  53   25   65 1
  54   26   27 1
  55   27   28 1
  56   27   66 1
  57   27   67 1
  58   28   29 1
  59   28   31 1
  60   28   68 1
  61   29   30 1
  62   29   33 1
  63   29   69 1
  64   30   70 1
  65   30   71 1
  66   31   32 1
  67   31   72 1
  68   31   73 1
  69   32   33 1
  70   32   74 1
  71   32   75 1
  72   34   35 1
  73   35   76 1
  74   35   77 1
  75   35   78 1
  76   36   37 ar
  77   36   41 ar
  78   37   38 ar
  79   37   79 1
  80   38   39 ar
  81   38   80 1
  82   39   40 ar
  83   39   81 1
  84   40   41 ar
  85   40   82 1
  86   41   83 1

#	End of record

