#	Name: ASD07931702
#	Creating user name:	WinNT
#	Creation time:	15. 06. 2019 21:13

#	Modifying user name:	WinNT
#	Modification time:	15. 06. 2019 21:13

#	Program:	/corina/corina34_cracker 3.40 0067  02.08.2006

@<TRIPOS>MOLECULE
ASD07931702
  54   58    0    0    0
SMALL
NO_CHARGES


@<TRIPOS>ATOM
   1 C1            -0.0165     1.3638     0.0095 C.2     
   2 C2             0.0021    -0.0041     0.0020 C.2     
   3 C3             1.2948    -0.6930    -0.0137 C.2     
   4 N4             2.4269     0.0320    -0.0184 N.am    
   5 C5             2.3819     1.4078    -0.0128 C.2     
   6 C6             1.1929     2.0698     0.0018 C.2     
   7 C7             3.7400    -0.6270    -0.0278 C.3     
   8 C8             4.6598     0.1584    -0.9746 C.3     
   9 N9             4.7714     1.5376    -0.4790 N.am    
  10 C10            3.6569     2.1587    -0.0242 C.2     
  11 C11            6.0637     2.2276    -0.4769 C.3     
  12 O12            1.3435    -1.9113    -0.0219 O.2     
  13 N13           -1.1914    -0.7315     0.0096 N.pl3   
  14 C14           -2.1398    -0.7526    -0.9807 C.2     
  15 C15           -1.6287    -1.5563     0.9973 C.2     
  16 N16           -2.7818    -2.0540     0.6427 N.2     
  17 C17           -3.1190    -1.5782    -0.5654 C.2     
  18 C18           -4.3767    -1.9103    -1.3263 C.3     
  19 O19            3.7030     3.3092     0.3661 O.2     
  20 C20            6.2496     2.9662    -1.8038 C.3     
  21 C21            7.6067     3.7088    -1.8389 C.3     
  22 C22            8.0469     3.5232    -3.2786 C.2     
  23 N23            7.3314     2.5851    -3.8027 N.2     
  24 O24            6.3954     2.0362    -2.8962 O.3     
  25 C25            9.1108     4.2841    -3.9627 C.ar    
  26 C26            9.8130     5.2778    -3.2783 C.ar    
  27 C27           10.8067     5.9853    -3.9228 C.ar    
  28 C28           11.1090     5.7129    -5.2450 C.ar    
  29 C29           10.4177     4.7292    -5.9313 C.ar    
  30 C30            9.4236     4.0092    -5.2964 C.ar    
  31 Cl31           8.5570     2.7757    -6.1574 Cl      
  32 Cl32          10.8048     4.3952    -7.5903 Cl      
  33 C33           11.5646     7.0584    -3.1845 C.3     
  34 F34           12.6876     6.4960    -2.5681 F       
  35 F35           11.9736     8.0456    -4.0874 F       
  36 F36           10.7363     7.6296    -2.2125 F       
  37 H37           -0.9567     1.8952     0.0169 H       
  38 H38            1.1819     3.1497     0.0071 H       
  39 H39            4.1596    -0.6261     0.9781 H       
  40 H40            3.6349    -1.6522    -0.3828 H       
  41 H41            5.6464    -0.3047    -0.9942 H       
  42 H42            4.2344     0.1631    -1.9781 H       
  43 H43            6.0920     2.9435     0.3446 H       
  44 H44            6.8645     1.4988    -0.3514 H       
  45 H45           -2.1074    -0.2110    -1.9146 H       
  46 H46           -1.1089    -1.7651     1.9207 H       
  47 H47           -5.1590    -1.1982    -1.0636 H       
  48 H48           -4.1791    -1.8545    -2.3968 H       
  49 H49           -4.7016    -2.9183    -1.0689 H       
  50 H50            5.4237     3.6543    -1.9840 H       
  51 H51            7.4755     4.7659    -1.6076 H       
  52 H52            8.3182     3.2472    -1.1542 H       
  53 H53            9.5786     5.4925    -2.2461 H       
  54 H54           11.8877     6.2704    -5.7442 H       
@<TRIPOS>BOND
   1    1    2 2
   2    1    6 1
   3    1   37 1
   4    2    3 1
   5    2   13 1
   6    3    4 am
   7    3   12 2
   8    4    5 1
   9    4    7 1
  10    5    6 2
  11    5   10 1
  12    6   38 1
  13    7    8 1
  14    7   39 1
  15    7   40 1
  16    8    9 1
  17    8   41 1
  18    8   42 1
  19    9   10 am
  20    9   11 1
  21   10   19 2
  22   11   20 1
  23   11   43 1
  24   11   44 1
  25   13   14 1
  26   13   15 1
  27   14   17 2
  28   14   45 1
  29   15   16 2
  30   15   46 1
  31   16   17 1
  32   17   18 1
  33   18   47 1
  34   18   48 1
  35   18   49 1
  36   20   21 1
  37   20   24 1
  38   20   50 1
  39   21   22 1
  40   21   51 1
  41   21   52 1
  42   22   23 2
  43   22   25 1
  44   23   24 1
  45   25   26 ar
  46   25   30 ar
  47   26   27 ar
  48   26   53 1
  49   27   28 ar
  50   27   33 1
  51   28   29 ar
  52   28   54 1
  53   29   30 ar
  54   29   32 1
  55   30   31 1
  56   33   34 1
  57   33   35 1
  58   33   36 1

#	End of record

