#	Name: ASD03490097
#	Creating user name:	WinNT
#	Creation time:	15. 06. 2019 20:42

#	Modifying user name:	WinNT
#	Modification time:	15. 06. 2019 20:42

#	Program:	/corina/corina34_cracker 3.40 0067  02.08.2006

@<TRIPOS>MOLECULE
ASD03490097
  43   46    0    0    0
SMALL
NO_CHARGES


@<TRIPOS>ATOM
   1 C1            -0.0170     1.3809     0.0313 C.ar    
   2 C2             0.0014    -0.0031     0.0279 C.ar    
   3 C3             1.2117    -0.6861     0.0104 C.ar    
   4 C4             2.4057     0.0184    -0.0039 C.ar    
   5 C5             2.3882     1.4134    -0.0010 C.ar    
   6 C6             1.1687     2.0917     0.0167 C.ar    
   7 C7             3.6578     2.1708    -0.0161 C.2     
   8 O8             4.7191     1.5780    -0.0310 O.2     
   9 N9             3.6386     3.5184    -0.0132 N.am    
  10 C10            4.8376     4.2356     0.0854 C.ar    
  11 C11            4.9805     5.4459    -0.5911 C.ar    
  12 C12            6.1523     6.1633    -0.5041 C.ar    
  13 C13            7.2076     5.6820     0.2634 C.ar    
  14 N14            8.4719     6.1584     0.5387 N.pl3   
  15 C15            9.1270     5.2872     1.3654 C.2     
  16 C16            8.3344     4.2418     1.6497 C.2     
  17 C17            7.0673     4.4609     0.9477 C.ar    
  18 C18            5.8731     3.7435     0.8579 C.ar    
  19 N19            1.2251    -2.0831     0.0075 N.3     
  20 C20           -0.1421    -2.6232     0.0248 C.3     
  21 C21           -0.0821    -4.1517    -0.0392 C.3     
  22 O22            0.7064    -4.6389     1.0500 O.3     
  23 C23            2.0442    -4.1334     1.0636 C.3     
  24 C24            2.0057    -2.6048     1.1389 C.3     
  25 F25           -1.1969     2.0389     0.0432 F       
  26 H26           -0.9275    -0.5540     0.0393 H       
  27 H27            3.3468    -0.5112    -0.0168 H       
  28 H28            1.1512     3.1716     0.0190 H       
  29 H29            2.7944     3.9915    -0.0795 H       
  30 H30            4.1646     5.8242    -1.1891 H       
  31 H31            6.2523     7.1000    -1.0324 H       
  32 H32            8.8419     6.9873     0.1968 H       
  33 H33           10.1331     5.4207     1.7347 H       
  34 H34            8.5837     3.3986     2.2769 H       
  35 H35            5.7605     2.8077     1.3852 H       
  36 H36           -0.6429    -2.3168     0.9432 H       
  37 H37           -0.6940    -2.2443    -0.8353 H       
  38 H38           -1.0907    -4.5588     0.0309 H       
  39 H39            0.3704    -4.4590    -0.9821 H       
  40 H40            2.5732    -4.5273     1.9314 H       
  41 H41            2.5584    -4.4402     0.1528 H       
  42 H42            3.0215    -2.2124     1.0919 H       
  43 H43            1.5392    -2.2981     2.0751 H       
@<TRIPOS>BOND
   1    1    2 ar
   2    1    6 ar
   3    1   25 1
   4    2    3 ar
   5    2   26 1
   6    3    4 ar
   7    3   19 1
   8    4    5 ar
   9    4   27 1
  10    5    6 ar
  11    5    7 1
  12    6   28 1
  13    7    8 2
  14    7    9 am
  15    9   10 1
  16    9   29 1
  17   10   11 ar
  18   10   18 ar
  19   11   12 ar
  20   11   30 1
  21   12   13 ar
  22   12   31 1
  23   13   14 1
  24   13   17 ar
  25   14   15 1
  26   14   32 1
  27   15   16 2
  28   15   33 1
  29   16   17 1
  30   16   34 1
  31   17   18 ar
  32   18   35 1
  33   19   20 1
  34   19   24 1
  35   20   21 1
  36   20   36 1
  37   20   37 1
  38   21   22 1
  39   21   38 1
  40   21   39 1
  41   22   23 1
  42   23   24 1
  43   23   40 1
  44   23   41 1
  45   24   42 1
  46   24   43 1

#	End of record

