#	Name: ASD01884696
#	Creating user name:	WinNT
#	Creation time:	15. 06. 2019 19:48

#	Modifying user name:	WinNT
#	Modification time:	15. 06. 2019 19:48

#	Program:	/corina/corina34_cracker 3.40 0067  02.08.2006

@<TRIPOS>MOLECULE
ASD01884696
  59   60    0    0    0
SMALL
NO_CHARGES


@<TRIPOS>ATOM
   1 C1            -0.0168     1.3884     0.0097 C.2     
   2 C2             0.0021    -0.0041     0.0020 C.2     
   3 C3            -1.2095    -0.6965     0.0104 C.2     
   4 C4            -2.3831    -0.0157     0.0252 C.2     
   5 N5            -2.4093     1.3392     0.0327 N.am    
   6 C6            -1.2693     2.0558     0.0312 C.2     
   7 O7            -1.3129     3.2741     0.0383 O.2     
   8 C8            -3.6983     2.0352     0.0483 C.3     
   9 C9             1.2059     2.1337     0.0020 C.1     
  10 N10            2.1759     2.7249    -0.0041 N.1     
  11 C11            1.3105    -0.7515    -0.0155 C.3     
  12 C12           -4.1338     2.2698     1.4962 C.3     
  13 C13           -5.4800     2.9967     1.5124 C.3     
  14 C14           -5.9753     3.1206     2.9547 C.3     
  15 C15           -5.3132     4.3926     0.9087 C.3     
  16 C16            1.6999    -1.1158     1.3940 C.2     
  17 C17            1.3729    -2.2924     1.8235 C.2     
  18 C18            1.6772    -2.7874     3.2099 C.3     
  19 N19            2.6037    -1.8520     3.8638 N.am    
  20 C20            2.3406    -0.4123     3.6937 C.3     
  21 C21            2.4440    -0.0918     2.1983 C.3     
  22 C22            3.6504    -2.2931     4.5894 C.2     
  23 O23            3.8646    -3.6152     4.7270 O.3     
  24 O24            4.4007    -1.4976     5.1192 O.2     
  25 C25            5.0107    -4.0180     5.5223 C.3     
  26 C26            4.8604    -3.4755     6.9449 C.3     
  27 C27            5.0907    -5.5453     5.5646 C.3     
  28 C28            6.2888    -3.4575     4.8952 C.3     
  29 H29           -1.2130    -1.7765     0.0046 H       
  30 H30           -3.3137    -0.5638     0.0308 H       
  31 H31           -3.5999     2.9937    -0.4613 H       
  32 H32           -4.4456     1.4275    -0.4619 H       
  33 H33            1.2023    -1.6595    -0.6087 H       
  34 H34            2.0835    -0.1207    -0.4544 H       
  35 H35           -4.2323     1.3113     2.0058 H       
  36 H36           -3.3866     2.8775     2.0064 H       
  37 H37           -6.2051     2.4317     0.9266 H       
  38 H38           -5.2502     3.6856     3.5406 H       
  39 H39           -6.9344     3.6385     2.9663 H       
  40 H40           -6.0942     2.1261     3.3848 H       
  41 H41           -4.9604     4.3043    -0.1188 H       
  42 H42           -6.2723     4.9105     0.9203 H       
  43 H43           -4.5881     4.9575     1.4946 H       
  44 H44            0.8523    -2.9552     1.1482 H       
  45 H45            0.7538    -2.8478     3.7859 H       
  46 H46            2.1365    -3.7741     3.1518 H       
  47 H47            1.3410    -0.1745     4.0575 H       
  48 H48            3.0819     0.1659     4.2455 H       
  49 H49            3.4932    -0.0850     1.9027 H       
  50 H50            2.0128     0.8913     2.0096 H       
  51 H51            3.9498    -3.8748     7.3917 H       
  52 H52            5.7208    -3.7779     7.5419 H       
  53 H53            4.8034    -2.3874     6.9148 H       
  54 H54            5.1978    -5.9317     4.5510 H       
  55 H55            5.9511    -5.8476     6.1616 H       
  56 H56            4.1801    -5.9445     6.0113 H       
  57 H57            6.2319    -2.3694     4.8650 H       
  58 H58            7.1493    -3.7599     5.4921 H       
  59 H59            6.3960    -3.8440     3.8816 H       
@<TRIPOS>BOND
   1    1    2 2
   2    1    9 1
   3    1    6 1
   4    2    3 1
   5    2   11 1
   6    3    4 2
   7    3   29 1
   8    4    5 1
   9    4   30 1
  10    5    8 1
  11    5    6 am
  12    6    7 2
  13    8   12 1
  14    8   31 1
  15    8   32 1
  16    9   10 3
  17   11   16 1
  18   11   33 1
  19   11   34 1
  20   12   13 1
  21   12   35 1
  22   12   36 1
  23   13   14 1
  24   13   15 1
  25   13   37 1
  26   14   38 1
  27   14   39 1
  28   14   40 1
  29   15   41 1
  30   15   42 1
  31   15   43 1
  32   16   17 2
  33   16   21 1
  34   17   18 1
  35   17   44 1
  36   18   19 1
  37   18   45 1
  38   18   46 1
  39   19   20 1
  40   19   22 am
  41   20   21 1
  42   20   47 1
  43   20   48 1
  44   21   49 1
  45   21   50 1
  46   22   23 1
  47   22   24 2
  48   23   25 1
  49   25   26 1
  50   25   27 1
  51   25   28 1
  52   26   51 1
  53   26   52 1
  54   26   53 1
  55   27   54 1
  56   27   55 1
  57   27   56 1
  58   28   57 1
  59   28   58 1
  60   28   59 1

#	End of record

