#	Name: ASD01150332
#	Creating user name:	WinNT
#	Creation time:	15. 06. 2019 19:04

#	Modifying user name:	WinNT
#	Modification time:	15. 06. 2019 19:04

#	Program:	/corina/corina34_cracker 3.40 0067  02.08.2006

@<TRIPOS>MOLECULE
ASD01150332
  55   57    0    0    0
SMALL
NO_CHARGES


@<TRIPOS>ATOM
   1 N1            -0.0169     1.3926     0.0097 N.pl3   
   2 C2             0.0021    -0.0041     0.0020 C.2     
   3 C3            -1.3281    -0.4052     0.0126 C.2     
   4 N4            -2.0858     0.6950     0.0257 N.2     
   5 C5            -1.3234     1.7682     0.0301 C.2     
   6 C6             1.1390    -0.8369    -0.0133 C.2     
   7 C7             1.0965     2.2428     0.0036 C.ar    
   8 C8             1.3308     3.0745    -1.0833 C.ar    
   9 C9             2.4290     3.9120    -1.0861 C.ar    
  10 C10            3.2948     3.9228    -0.0079 C.ar    
  11 C11            3.0645     3.0954     1.0758 C.ar    
  12 C12            1.9648     2.2598     1.0870 C.ar    
  13 N13           -1.7777     3.0668     0.0439 N.3     
  14 C14           -3.2460     3.1108     0.0526 C.3     
  15 C15           -1.2220     3.8069     1.1848 C.3     
  16 O16            1.0070    -2.0475    -0.0185 O.2     
  17 O17            2.3748    -0.2923    -0.0222 O.3     
  18 C18            3.4818    -1.1959    -0.0376 C.3     
  19 C19            3.4089    -2.0704    -1.2909 C.3     
  20 C20            4.7890    -0.4008    -0.0458 C.3     
  21 C21            3.4327    -2.0838     1.2074 C.3     
  22 N22           -1.7882    -1.7165     0.0092 N.am    
  23 C23           -3.1126    -1.9660     0.0206 C.2     
  24 O24           -3.9047    -1.0440     0.0338 O.2     
  25 C25           -3.6016    -3.3598     0.0170 C.ar    
  26 C26           -2.6999    -4.4307     0.0019 C.ar    
  27 C27           -3.2094    -5.7174    -0.0004 C.ar    
  28 C28           -4.5799    -5.9038     0.0123 C.ar    
  29 N29           -5.4076    -4.8763     0.0260 N.ar    
  30 C30           -4.9724    -3.6323     0.0346 C.ar    
  31 Cl31          -6.1107    -2.3218     0.0531 Cl      
  32 H32            0.6551     3.0663    -1.9258 H       
  33 H33            2.6120     4.5589    -1.9314 H       
  34 H34            4.1529     4.5786    -0.0124 H       
  35 H35            3.7429     3.1055     1.9161 H       
  36 H36            1.7852     1.6140     1.9339 H       
  37 H37           -3.6195     2.6004     0.9404 H       
  38 H38           -3.5783     4.1489     0.0634 H       
  39 H39           -3.6296     2.6158    -0.8395 H       
  40 H40           -0.1343     3.8178     1.1157 H       
  41 H41           -1.5973     4.8301     1.1716 H       
  42 H42           -1.5223     3.3217     2.1135 H       
  43 H43            3.4439    -1.4378    -2.1779 H       
  44 H44            4.2533    -2.7596    -1.3026 H       
  45 H45            2.4777    -2.6368    -1.2851 H       
  46 H46            4.8409     0.2222     0.8471 H       
  47 H47            5.6334    -1.0900    -0.0575 H       
  48 H48            4.8239     0.2318    -0.9327 H       
  49 H49            2.5015    -2.6502     1.2133 H       
  50 H50            4.2771    -2.7730     1.1957 H       
  51 H51            3.4847    -1.4608     2.1003 H       
  52 H52           -1.1561    -2.4522    -0.0013 H       
  53 H53           -1.6340    -4.2571    -0.0082 H       
  54 H54           -2.5435    -6.5676    -0.0122 H       
  55 H55           -4.9792    -6.9072     0.0106 H       
@<TRIPOS>BOND
   1    1    2 1
   2    1    7 1
   3    1    5 1
   4    2    3 2
   5    2    6 1
   6    3    4 1
   7    3   22 1
   8    4    5 2
   9    5   13 1
  10    6   16 2
  11    6   17 1
  12    7    8 ar
  13    7   12 ar
  14    8    9 ar
  15    8   32 1
  16    9   10 ar
  17    9   33 1
  18   10   11 ar
  19   10   34 1
  20   11   12 ar
  21   11   35 1
  22   12   36 1
  23   13   14 1
  24   13   15 1
  25   14   37 1
  26   14   38 1
  27   14   39 1
  28   15   40 1
  29   15   41 1
  30   15   42 1
  31   17   18 1
  32   18   19 1
  33   18   20 1
  34   18   21 1
  35   19   43 1
  36   19   44 1
  37   19   45 1
  38   20   46 1
  39   20   47 1
  40   20   48 1
  41   21   49 1
  42   21   50 1
  43   21   51 1
  44   22   23 am
  45   22   52 1
  46   23   24 2
  47   23   25 1
  48   25   26 ar
  49   25   30 ar
  50   26   27 ar
  51   26   53 1
  52   27   28 ar
  53   27   54 1
  54   28   29 ar
  55   28   55 1
  56   29   30 ar
  57   30   31 1

#	End of record

