#	Name: ASD03730156
#	Creating user name:	WinNT
#	Creation time:	15. 06. 2019 20:44

#	Modifying user name:	WinNT
#	Modification time:	15. 06. 2019 20:44

#	Program:	/corina/corina34_cracker 3.40 0067  02.08.2006

@<TRIPOS>MOLECULE
ASD03730156
  35   39    0    0    0
SMALL
NO_CHARGES


@<TRIPOS>ATOM
   1 O1            -0.0174     1.4355     0.0099 O.3     
   2 C2             0.0021    -0.0041     0.0020 C.3     
   3 O3             1.2460    -0.3263    -0.6473 O.3     
   4 C4             2.0712     0.7338    -0.4019 C.ar    
   5 C5             1.2937     1.8175    -0.0005 C.ar    
   6 C6             3.4458     0.8628    -0.4881 C.ar    
   7 C7             4.0609     2.0726    -0.1803 C.ar    
   8 C8             3.2727     3.1521     0.2071 C.ar    
   9 C9             1.9025     3.0241     0.3015 C.ar    
  10 O10            5.3843     2.4030    -0.1820 O.3     
  11 C11            4.2100     4.3077     0.4352 C.3     
  12 C12            5.5156     3.8371    -0.2206 C.3     
  13 N13            3.6173     6.4813     0.8208 N.am    
  14 C14            3.7035     5.5810    -0.1789 C.2     
  15 C15            4.3947     4.6146     1.8916 C.ar    
  16 C16            4.8287     3.8779     2.9722 C.ar    
  17 C17            4.8907     4.4589     4.2273 C.ar    
  18 C18            4.5159     5.7797     4.3929 C.ar    
  19 C19            4.0816     6.5212     3.3140 C.ar    
  20 C20            4.0160     5.9452     2.0475 C.ar    
  21 O21            3.4267     5.7638    -1.3455 O.2     
  22 C22            3.1592     7.8612     0.6414 C.3     
  23 Br23           5.3393     2.0719     2.7407 Br      
  24 H24           -0.0102    -0.3928     1.0203 H       
  25 H25           -0.8403    -0.3953    -0.5685 H       
  26 H26            4.0456     0.0190    -0.7959 H       
  27 H27            1.3029     3.8671     0.6118 H       
  28 H28            6.3793     4.1626     0.3593 H       
  29 H29            5.5822     4.1922    -1.2490 H       
  30 H30            5.2312     3.8823     5.0747 H       
  31 H31            4.5638     6.2330     5.3720 H       
  32 H32            3.7907     7.5521     3.4519 H       
  33 H33            2.9082     8.0274    -0.4062 H       
  34 H34            2.2773     8.0344     1.2582 H       
  35 H35            3.9512     8.5485     0.9387 H       
@<TRIPOS>BOND
   1    1    2 1
   2    1    5 1
   3    2    3 1
   4    2   24 1
   5    2   25 1
   6    3    4 1
   7    4    5 ar
   8    4    6 ar
   9    5    9 ar
  10    6    7 ar
  11    6   26 1
  12    7    8 ar
  13    7   10 1
  14    8    9 ar
  15    8   11 1
  16    9   27 1
  17   10   12 1
  18   11   12 1
  19   11   14 1
  20   11   15 1
  21   12   28 1
  22   12   29 1
  23   13   14 am
  24   13   20 1
  25   13   22 1
  26   14   21 2
  27   15   16 ar
  28   15   20 ar
  29   16   17 ar
  30   16   23 1
  31   17   18 ar
  32   17   30 1
  33   18   19 ar
  34   18   31 1
  35   19   20 ar
  36   19   32 1
  37   22   33 1
  38   22   34 1
  39   22   35 1

#	End of record

