#	Name: ASD01190186
#	Creating user name:	WinNT
#	Creation time:	15. 06. 2019 19:07

#	Modifying user name:	WinNT
#	Modification time:	15. 06. 2019 19:07

#	Program:	/corina/corina34_cracker 3.40 0067  02.08.2006

@<TRIPOS>MOLECULE
ASD01190186
  65   70    0    0    0
SMALL
NO_CHARGES


@<TRIPOS>ATOM
   1 C1            -0.0187     1.5258     0.0104 C.3     
   2 C2            -0.1834     2.0572     1.4357 C.3     
   3 N3             3.0274     3.3715    -0.9230 N.pl3   
   4 C4             2.0253     3.0418    -0.0517 C.2     
   5 C5             1.2046     2.1426    -0.6174 C.2     
   6 C6             1.7237     1.8746    -1.9608 C.ar    
   7 C7             1.3172     1.0501    -3.0118 C.ar    
   8 C8             2.0381     1.0250    -4.1720 C.ar    
   9 C9             3.1723     1.8129    -4.3148 C.ar    
  10 C10            3.5914     2.6331    -3.2906 C.ar    
  11 C11            2.8721     2.6749    -2.1005 C.ar    
  12 C12            4.1021     4.3281    -0.6466 C.3     
  13 C13            3.7140     5.7033    -1.1935 C.3     
  14 N14            4.7915     6.6624    -0.9163 N.3     
  15 C15            4.5656     7.9288    -1.6280 C.3     
  16 C16            5.6769     8.9173    -1.2649 C.3     
  17 O17            6.9456     8.3376    -1.5807 O.3     
  18 C18            7.1989     7.1032    -0.9043 C.3     
  19 C19            6.1030     6.0963    -1.2638 C.3     
  20 N20            0.3222    -4.0860     0.0404 N.pl3   
  21 N21           -0.9196    -4.3806    -0.5322 N.2     
  22 C22           -1.5615    -3.2790    -0.8005 C.2     
  23 C23           -0.7187    -2.1599    -0.3915 C.ar    
  24 C24           -0.8645    -0.7686    -0.4273 C.ar    
  25 C25            0.1373     0.0273     0.0479 C.ar    
  26 C26            1.2998    -0.5309     0.5655 C.ar    
  27 C27            1.4653    -1.8863     0.6106 C.ar    
  28 C28            0.4604    -2.7234     0.1335 C.ar    
  29 C29            1.2698    -5.0298     0.4573 C.ar    
  30 C30            0.8548    -6.2368     1.0046 C.ar    
  31 C31            1.7906    -7.1658     1.4150 C.ar    
  32 C32            3.1420    -6.8945     1.2810 C.ar    
  33 C33            3.5579    -5.6915     0.7354 C.ar    
  34 C34            2.6253    -4.7621     0.3185 C.ar    
  35 F35            4.0558    -7.8045     1.6835 F       
  36 F36           -0.3282     3.4482     1.4009 F       
  37 F37           -1.3190     1.4846     2.0185 F       
  38 F38            0.9464     1.7246     2.1909 F       
  39 O39           -1.1727     1.8654    -0.7609 O.3     
  40 H40            1.9116     3.4449     0.9437 H       
  41 H41            0.4362     0.4341    -2.9077 H       
  42 H42            1.7235     0.3868    -4.9845 H       
  43 H43            3.7317     1.7821    -5.2381 H       
  44 H44            4.4751     3.2421    -3.4113 H       
  45 H45            4.2597     4.3963     0.4298 H       
  46 H46            5.0205     3.9917    -1.1277 H       
  47 H47            3.5563     5.6350    -2.2698 H       
  48 H48            2.7955     6.0396    -0.7123 H       
  49 H49            4.5755     7.7489    -2.7030 H       
  50 H50            3.6005     8.3430    -1.3364 H       
  51 H51            5.5456     9.8377    -1.8338 H       
  52 H52            5.6332     9.1385    -0.1985 H       
  53 H53            8.1683     6.7115    -1.2126 H       
  54 H54            7.1994     7.2716     0.1726 H       
  55 H55            6.2601     5.1729    -0.7064 H       
  56 H56            6.1374     5.8871    -2.3330 H       
  57 H57           -2.5425    -3.2069    -1.2465 H       
  58 H58           -1.7646    -0.3271    -0.8288 H       
  59 H59            2.0821     0.1147     0.9364 H       
  60 H60            2.3738    -2.3074     1.0151 H       
  61 H61           -0.1990    -6.4486     1.1096 H       
  62 H62            1.4683    -8.1044     1.8410 H       
  63 H63            4.6123    -5.4817     0.6321 H       
  64 H64            2.9501    -3.8261    -0.1114 H       
  65 H65           -1.1372     1.5592    -1.6775 H       
@<TRIPOS>BOND
   1    1    2 1
   2    1    5 1
   3    1   25 1
   4    1   39 1
   5    2   36 1
   6    2   37 1
   7    2   38 1
   8    3    4 1
   9    3   11 1
  10    3   12 1
  11    4    5 2
  12    4   40 1
  13    5    6 1
  14    6    7 ar
  15    6   11 ar
  16    7    8 ar
  17    7   41 1
  18    8    9 ar
  19    8   42 1
  20    9   10 ar
  21    9   43 1
  22   10   11 ar
  23   10   44 1
  24   12   13 1
  25   12   45 1
  26   12   46 1
  27   13   14 1
  28   13   47 1
  29   13   48 1
  30   14   15 1
  31   14   19 1
  32   15   16 1
  33   15   49 1
  34   15   50 1
  35   16   17 1
  36   16   51 1
  37   16   52 1
  38   17   18 1
  39   18   19 1
  40   18   53 1
  41   18   54 1
  42   19   55 1
  43   19   56 1
  44   20   21 1
  45   20   28 1
  46   20   29 1
  47   21   22 2
  48   22   23 1
  49   22   57 1
  50   23   24 ar
  51   23   28 ar
  52   24   25 ar
  53   24   58 1
  54   25   26 ar
  55   26   27 ar
  56   26   59 1
  57   27   28 ar
  58   27   60 1
  59   29   30 ar
  60   29   34 ar
  61   30   31 ar
  62   30   61 1
  63   31   32 ar
  64   31   62 1
  65   32   33 ar
  66   32   35 1
  67   33   34 ar
  68   33   63 1
  69   34   64 1
  70   39   65 1

#	End of record

