#	Name: ASD01881784
#	Creating user name:	WinNT
#	Creation time:	15. 06. 2019 19:43

#	Modifying user name:	WinNT
#	Modification time:	15. 06. 2019 19:43

#	Program:	/corina/corina34_cracker 3.40 0067  02.08.2006

@<TRIPOS>MOLECULE
ASD01881784
  44   48    0    0    0
SMALL
NO_CHARGES


@<TRIPOS>ATOM
   1 N1            -0.0154     1.2839     0.0091 N.pl3   
   2 N2             0.0021    -0.0041     0.0020 N.2     
   3 N3             1.2033    -0.4649    -0.0119 N.2     
   4 C4             2.0741     0.5645    -0.0147 C.ar    
   5 C5             1.2843     1.7298    -0.0009 C.ar    
   6 C6             3.4670     0.6759    -0.0271 C.ar    
   7 C7             4.0484     1.9285    -0.0255 C.ar    
   8 C8             3.2560     3.0739    -0.0118 C.ar    
   9 C9             1.8924     2.9784    -0.0004 C.ar    
  10 O10            5.4033     2.0444    -0.0370 O.3     
  11 C11            5.9411     3.3683    -0.0346 C.3     
  12 C12            9.5265     3.9113    -0.0634 C.2     
  13 C13           10.7649     4.5839    -0.0710 C.2     
  14 C14           11.9162     3.8599    -0.0918 C.2     
  15 C15           11.8555     2.4565    -0.1054 C.2     
  16 C16           10.6621     1.8265    -0.0982 C.2     
  17 N17            9.4993     2.5408    -0.0771 N.pl3   
  18 N18            8.2744     4.3464    -0.0498 N.2     
  19 C19            7.4465     3.2990    -0.0485 C.2     
  20 C20            8.1832     2.1666    -0.0661 C.2     
  21 C21           10.6129     0.3204    -0.1135 C.3     
  22 C22           -1.2133     2.1272     0.0196 C.3     
  23 C23           -1.6228     2.4135     1.4657 C.3     
  24 C24           -2.7884     3.3784     1.6921 C.3     
  25 C25           -2.9777     1.8797     1.9352 C.3     
  26 Br26           4.5472    -0.8761    -0.0451 Br      
  27 H27            3.7236     4.0474    -0.0103 H       
  28 H28            1.2882     3.8735     0.0099 H       
  29 H29            5.5939     3.9031    -0.9187 H       
  30 H30            5.6098     3.8935     0.8612 H       
  31 H31           10.7994     5.6633    -0.0607 H       
  32 H32           12.8726     4.3616    -0.0982 H       
  33 H33           12.7681     1.8792    -0.1219 H       
  34 H34            7.8042     1.1553    -0.0721 H       
  35 H35           11.6281    -0.0761    -0.1295 H       
  36 H36           10.0979    -0.0354     0.7788 H       
  37 H37           10.0772    -0.0166    -1.0010 H       
  38 H38           -1.0007     3.0667    -0.4906 H       
  39 H39           -2.0254     1.6113    -0.4926 H       
  40 H40           -0.8089     2.4286     2.1906 H       
  41 H41           -2.7415     4.0280     2.5661 H       
  42 H42           -3.2635     3.8093     0.8108 H       
  43 H43           -3.5773     1.3246     1.2137 H       
  44 H44           -3.0553     1.5434     2.9691 H       
@<TRIPOS>BOND
   1    1    2 1
   2    1    5 1
   3    1   22 1
   4    2    3 2
   5    3    4 1
   6    4    5 ar
   7    4    6 ar
   8    5    9 ar
   9    6    7 ar
  10    6   26 1
  11    7    8 ar
  12    7   10 1
  13    8    9 ar
  14    8   27 1
  15    9   28 1
  16   10   11 1
  17   11   19 1
  18   11   29 1
  19   11   30 1
  20   12   13 1
  21   12   17 1
  22   12   18 2
  23   13   14 2
  24   13   31 1
  25   14   15 1
  26   14   32 1
  27   15   16 2
  28   15   33 1
  29   16   17 1
  30   16   21 1
  31   17   20 1
  32   18   19 1
  33   19   20 2
  34   20   34 1
  35   21   35 1
  36   21   36 1
  37   21   37 1
  38   22   23 1
  39   22   38 1
  40   22   39 1
  41   23   24 1
  42   23   25 1
  43   23   40 1
  44   24   25 1
  45   24   41 1
  46   24   42 1
  47   25   43 1
  48   25   44 1

#	End of record

