#	Name: ASD07931744
#	Creating user name:	WinNT
#	Creation time:	15. 06. 2019 21:13

#	Modifying user name:	WinNT
#	Modification time:	15. 06. 2019 21:13

#	Program:	/corina/corina34_cracker 3.40 0067  02.08.2006

@<TRIPOS>MOLECULE
ASD07931744
  60   64    0    0    0
SMALL
NO_CHARGES


@<TRIPOS>ATOM
   1 C1             1.8806    -1.7737    -1.4343 C.2     
   2 C2             0.8104    -0.9383    -1.6023 C.2     
   3 C3             1.0400     0.5084    -1.6235 C.2     
   4 N4             2.2913     0.9784    -1.4798 N.am    
   5 C5             3.3517     0.1171    -1.3099 C.2     
   6 C6             3.1629    -1.2305    -1.2870 C.2     
   7 C7             2.5576     2.4230    -1.5025 C.3     
   8 C8             3.6095     2.7301    -0.4262 C.3     
   9 N9             4.8287     1.9696    -0.7351 N.am    
  10 C10            4.7083     0.6860    -1.1506 C.2     
  11 C11            6.1494     2.5882    -0.5962 C.3     
  12 O12            0.1060     1.2783    -1.7703 O.2     
  13 N13           -0.4793    -1.4559    -1.7516 N.pl3   
  14 C14           -1.1909    -2.1559    -0.8112 C.2     
  15 C15           -1.2676    -1.3556    -2.8541 C.2     
  16 N16           -2.3977    -1.9623    -2.6133 N.2     
  17 C17           -2.3777    -2.4621    -1.3685 C.2     
  18 C18           -3.4914    -3.2331    -0.7080 C.3     
  19 O19            5.6943     0.0152    -1.3872 O.2     
  20 C20            6.4120     2.9046     0.8775 C.3     
  21 C21            6.2363     1.6349     1.7397 C.3     
  22 C22            5.5860     2.1525     3.0421 C.3     
  23 C23            5.4458     3.6737     2.8128 C.3     
  24 O24            5.4221     3.8299     1.3772 O.3     
  25 C25            4.1609     4.1791     3.4167 C.ar    
  26 C26            4.1299     4.5792     4.7395 C.ar    
  27 C27            3.0155     4.2474     2.6460 C.ar    
  28 C28            1.8358     4.7111     3.1981 C.ar    
  29 C29            1.8007     5.1068     4.5226 C.ar    
  30 C30            2.9500     5.0434     5.2944 C.ar    
  31 Cl31           0.3197     5.6896     5.2160 Cl      
  32 C32            6.1948     3.8821    -1.4116 C.3     
  33 F33            2.9174     5.4291     6.5888 F       
  34 C34            5.3806     4.5097     5.5774 C.3     
  35 F35            6.0800     5.7167     5.4723 F       
  36 F36            5.0344     4.2862     6.9144 F       
  37 F37            6.1884     3.4616     5.1234 F       
  38 H38            1.7370    -2.8439    -1.4110 H       
  39 H39            4.0099    -1.8871    -1.1535 H       
  40 H40            2.9379     2.7120    -2.4822 H       
  41 H41            1.6397     2.9701    -1.2870 H       
  42 H42            3.8333     3.7969    -0.4267 H       
  43 H43            3.2304     2.4330     0.5516 H       
  44 H44            6.9127     1.9013    -0.9620 H       
  45 H45           -0.8624    -2.4123     0.1852 H       
  46 H46           -1.0033    -0.8571    -3.7750 H       
  47 H47           -3.3650    -4.2971    -0.9080 H       
  48 H48           -3.4648    -3.0600     0.3679 H       
  49 H49           -4.4498    -2.8999    -1.1060 H       
  50 H50            7.4144     3.3136     1.0043 H       
  51 H51            5.5786     0.9228     1.2412 H       
  52 H52            7.2039     1.1796     1.9507 H       
  53 H53            4.6068     1.6963     3.1876 H       
  54 H54            6.2321     1.9531     3.8970 H       
  55 H55            6.2993     4.2018     3.2379 H       
  56 H56            3.0422     3.9385     1.6114 H       
  57 H57            0.9417     4.7647     2.5947 H       
  58 H58            7.1774     4.3424    -1.3082 H       
  59 H59            6.0077     3.6567    -2.4615 H       
  60 H60            5.4316     4.5690    -1.0458 H       
@<TRIPOS>BOND
   1    1    2 2
   2    1    6 1
   3    1   38 1
   4    2    3 1
   5    2   13 1
   6    3    4 am
   7    3   12 2
   8    4    5 1
   9    4    7 1
  10    5    6 2
  11    5   10 1
  12    6   39 1
  13    7    8 1
  14    7   40 1
  15    7   41 1
  16    8    9 1
  17    8   42 1
  18    8   43 1
  19    9   10 am
  20    9   11 1
  21   10   19 2
  22   11   32 1
  23   11   20 1
  24   11   44 1
  25   13   14 1
  26   13   15 1
  27   14   17 2
  28   14   45 1
  29   15   16 2
  30   15   46 1
  31   16   17 1
  32   17   18 1
  33   18   47 1
  34   18   48 1
  35   18   49 1
  36   20   21 1
  37   20   24 1
  38   20   50 1
  39   21   22 1
  40   21   51 1
  41   21   52 1
  42   22   23 1
  43   22   53 1
  44   22   54 1
  45   23   24 1
  46   23   25 1
  47   23   55 1
  48   25   26 ar
  49   25   27 ar
  50   26   34 1
  51   26   30 ar
  52   27   28 ar
  53   27   56 1
  54   28   29 ar
  55   28   57 1
  56   29   30 ar
  57   29   31 1
  58   30   33 1
  59   32   58 1
  60   32   59 1
  61   32   60 1
  62   34   35 1
  63   34   36 1
  64   34   37 1

#	End of record

