#	Name: ASD01150704
#	Creating user name:	WinNT
#	Creation time:	15. 06. 2019 19:04

#	Modifying user name:	WinNT
#	Modification time:	15. 06. 2019 19:04

#	Program:	/corina/corina34_cracker 3.40 0067  02.08.2006

@<TRIPOS>MOLECULE
ASD01150704
  52   56    0    0    0
SMALL
NO_CHARGES


@<TRIPOS>ATOM
   1 C1             0.2625     1.2848     0.2555 C.2     
   2 C2             0.2419    -0.1897     0.1776 C.ar    
   3 C3             1.2127    -0.9386     0.8482 C.ar    
   4 C4             1.1930    -2.3130     0.7759 C.ar    
   5 C5             0.2027    -2.9593     0.0320 C.ar    
   6 C6            -0.7675    -2.2109    -0.6389 C.ar    
   7 C7            -0.7517    -0.8367    -0.5621 C.ar    
   8 O8             1.1233     1.8469     0.9026 O.2     
   9 O9            -0.6701     2.0069    -0.3957 O.3     
  10 C10           -0.1922    -6.6099     0.9522 C.ar    
  11 C11           -0.1863    -5.2194     1.0798 C.ar    
  12 C12            0.1818    -4.4357    -0.0456 C.ar    
  13 C13            0.5260    -5.1016    -1.2375 C.ar    
  14 C14            0.4904    -6.5022    -1.2654 C.ar    
  15 N15            0.1438    -7.1889    -0.2062 N.ar    
  16 C16           -0.5774    -4.7744     2.4123 C.2     
  17 C17           -0.8663    -5.7704     3.2517 C.2     
  18 S18           -0.6752    -7.3350     2.4798 S.3     
  19 C19           -1.2997    -5.5754     4.6947 C.3     
  20 C20           -0.9468    -4.1503     5.1273 C.3     
  21 C21           -1.4759    -3.1673     4.0784 C.3     
  22 C22           -0.6453    -3.3032     2.8011 C.3     
  23 C23            0.8562    -7.2288    -2.5340 C.3     
  24 C24            0.9148    -4.3418    -2.4304 C.2     
  25 O25            0.0851    -4.0669    -3.2717 O.2     
  26 C26            2.3451    -3.9026    -2.6110 C.3     
  27 C27            2.8330    -3.6551    -4.0398 C.3     
  28 C28            2.5888    -2.4732    -3.0993 C.3     
  29 C29           -0.5885     3.4515    -0.2745 C.3     
  30 H30            1.9784    -0.4390     1.4230 H       
  31 H31            1.9434    -2.8918     1.2939 H       
  32 H32           -1.5325    -2.7108    -1.2145 H       
  33 H33           -1.5044    -0.2583    -1.0772 H       
  34 H34           -2.3761    -5.7260     4.7764 H       
  35 H35           -0.7793    -6.2901     5.3323 H       
  36 H36           -1.4071    -3.9373     6.0921 H       
  37 H37            0.1356    -4.0508     5.2076 H       
  38 H38           -2.5195    -3.3938     3.8603 H       
  39 H39           -1.3946    -2.1493     4.4593 H       
  40 H40            0.3617    -2.9255     2.9783 H       
  41 H41           -1.1145    -2.7346     1.9982 H       
  42 H42            1.9382    -7.3514    -2.5834 H       
  43 H43            0.3787    -8.2086    -2.5422 H       
  44 H44            0.5164    -6.6518    -3.3941 H       
  45 H45            3.0585    -4.3207    -1.9008 H       
  46 H46            3.8676    -3.9100    -4.2695 H       
  47 H47            2.1196    -3.8099    -4.8492 H       
  48 H48            1.7148    -1.8506    -3.2900 H       
  49 H49            3.4627    -1.9507    -2.7103 H       
  50 H50           -0.6792     3.7338     0.7744 H       
  51 H51            0.3708     3.7950    -0.6615 H       
  52 H52           -1.3959     3.9102    -0.8453 H       
@<TRIPOS>BOND
   1    1    2 1
   2    1    8 2
   3    1    9 1
   4    2    3 ar
   5    2    7 ar
   6    3    4 ar
   7    3   30 1
   8    4    5 ar
   9    4   31 1
  10    5    6 ar
  11    5   12 1
  12    6    7 ar
  13    6   32 1
  14    7   33 1
  15    9   29 1
  16   10   11 ar
  17   10   15 ar
  18   10   18 1
  19   11   12 ar
  20   11   16 1
  21   12   13 ar
  22   13   14 ar
  23   13   24 1
  24   14   15 ar
  25   14   23 1
  26   16   17 2
  27   16   22 1
  28   17   18 1
  29   17   19 1
  30   19   20 1
  31   19   34 1
  32   19   35 1
  33   20   21 1
  34   20   36 1
  35   20   37 1
  36   21   22 1
  37   21   38 1
  38   21   39 1
  39   22   40 1
  40   22   41 1
  41   23   42 1
  42   23   43 1
  43   23   44 1
  44   24   25 2
  45   24   26 1
  46   26   27 1
  47   26   28 1
  48   26   45 1
  49   27   28 1
  50   27   46 1
  51   27   47 1
  52   28   48 1
  53   28   49 1
  54   29   50 1
  55   29   51 1
  56   29   52 1

#	End of record

