#	Name: ASD01916166
#	Creating user name:	WinNT
#	Creation time:	15. 06. 2019 20:06

#	Modifying user name:	WinNT
#	Modification time:	15. 06. 2019 20:06

#	Program:	/corina/corina34_cracker 3.40 0067  02.08.2006

@<TRIPOS>MOLECULE
ASD01916166
  47   50    0    0    0
SMALL
NO_CHARGES


@<TRIPOS>ATOM
   1 C1             2.0609     0.7238    -4.8467 C.ar    
   2 C2             1.8267    -0.5006    -4.2516 C.ar    
   3 C3             2.8901    -1.3398    -3.9522 C.ar    
   4 C4             4.1865    -0.9466    -4.2514 C.ar    
   5 C5             4.4154     0.2788    -4.8465 C.ar    
   6 C6             3.3539     1.1134    -5.1439 C.ar    
   7 O7             2.6624    -2.5447    -3.3663 O.3     
   8 C8             3.8047    -3.3564    -3.0867 C.3     
   9 C9             3.3603    -4.6443    -2.4427 C.2     
  10 C10            2.0375    -5.0049    -2.1559 C.2     
  11 N11            4.1443    -5.6217    -2.0599 N.2     
  12 N12            3.3471    -6.6329    -1.5168 N.pl3   
  13 C13            2.0590    -6.2240    -1.5847 C.2     
  14 C14            3.7913    -7.9193    -0.9732 C.3     
  15 C15            2.6851    -8.5024    -0.0872 C.3     
  16 N16            1.3948    -8.3860    -0.7835 N.am    
  17 C17            0.8873    -7.0349    -1.0839 C.3     
  18 C18            0.6971    -9.4825    -1.1404 C.2     
  19 C19           -0.6580    -9.3420    -1.7148 C.ar    
  20 O20            1.1819   -10.5870    -0.9901 O.2     
  21 C21           -1.1136   -10.2550    -2.6668 C.ar    
  22 C22           -3.1972    -9.0814    -2.7927 C.ar    
  23 C23           -2.7543    -8.1739    -1.8434 C.ar    
  24 C24           -1.4889    -8.2990    -1.3028 C.ar    
  25 C25           -2.3793   -10.1197    -3.1995 C.ar    
  26 C26            2.9815    -9.9763     0.1968 C.3     
  27 H27            2.6428    -7.9513     0.8523 H       
  28 F28           -3.5586    -7.1620    -1.4506 F       
  29 H29            1.2331     1.3755    -5.0841 H       
  30 H30            0.8167    -0.8043    -4.0193 H       
  31 H31            5.0161    -1.5980    -4.0190 H       
  32 H32            5.4245     0.5855    -5.0793 H       
  33 H33            3.5349     2.0710    -5.6091 H       
  34 H34            4.3298    -3.5772    -4.0161 H       
  35 H35            4.4725    -2.8233    -2.4100 H       
  36 H36            1.1579    -4.4113    -2.3568 H       
  37 H37            4.0022    -8.6071    -1.7921 H       
  38 H38            4.6933    -7.7716    -0.3795 H       
  39 H39            0.4830    -6.5800    -0.1797 H       
  40 H40            0.1150    -7.0899    -1.8511 H       
  41 H41           -0.4762   -11.0662    -2.9865 H       
  42 H42           -4.1871    -8.9804    -3.2125 H       
  43 H43           -1.1438    -7.5917    -0.5631 H       
  44 H44           -2.7319   -10.8262    -3.9362 H       
  45 H45            3.9398   -10.0621     0.7089 H       
  46 H46            2.1944   -10.3903     0.8270 H       
  47 H47            3.0214   -10.5265    -0.7433 H       
@<TRIPOS>BOND
   1    1    2 ar
   2    1    6 ar
   3    1   29 1
   4    2    3 ar
   5    2   30 1
   6    3    4 ar
   7    3    7 1
   8    4    5 ar
   9    4   31 1
  10    5    6 ar
  11    5   32 1
  12    6   33 1
  13    7    8 1
  14    8    9 1
  15    8   34 1
  16    8   35 1
  17    9   10 1
  18    9   11 2
  19   10   13 2
  20   10   36 1
  21   11   12 1
  22   12   13 1
  23   12   14 1
  24   13   17 1
  25   14   15 1
  26   14   37 1
  27   14   38 1
  28   15   16 1
  29   15   26 1
  30   15   27 1
  31   16   17 1
  32   16   18 am
  33   17   39 1
  34   17   40 1
  35   18   19 1
  36   18   20 2
  37   19   21 ar
  38   19   24 ar
  39   21   25 ar
  40   21   41 1
  41   22   23 ar
  42   22   25 ar
  43   22   42 1
  44   23   24 ar
  45   23   28 1
  46   24   43 1
  47   25   44 1
  48   26   45 1
  49   26   46 1
  50   26   47 1

#	End of record

