#	Name: ASD04880039
#	Creating user name:	WinNT
#	Creation time:	15. 06. 2019 20:52

#	Modifying user name:	WinNT
#	Modification time:	15. 06. 2019 20:52

#	Program:	/corina/corina34_cracker 3.40 0067  02.08.2006

@<TRIPOS>MOLECULE
ASD04880039
  43   46    0    0    0
SMALL
NO_CHARGES


@<TRIPOS>ATOM
   1 C1            -0.0144     1.2117     0.0087 C.2     
   2 O2             0.0580    -0.0018    -0.0140 O.2     
   3 C3             1.2185     2.0263    -0.0194 C.ar    
   4 C4             2.4678     1.4101     0.0723 C.ar    
   5 C5             3.6161     2.1778     0.0449 C.ar    
   6 C6             3.5282     3.5559    -0.0733 C.ar    
   7 C7             2.2925     4.1705    -0.1639 C.ar    
   8 C8             1.1386     3.4143    -0.1435 C.ar    
   9 F9             4.8265     1.5843     0.1339 F       
  10 N10           -1.2192     1.8141     0.0539 N.am    
  11 N11           -1.4359     3.1832     0.1955 N.2     
  12 C12           -2.6799     3.5203     0.2120 C.2     
  13 C13           -3.5397     2.2850     0.0679 C.3     
  14 C14           -2.5204     1.1340    -0.0447 C.3     
  15 C15           -4.1385     7.4885     0.6100 C.ar    
  16 C16           -2.7642     7.2484     0.6058 C.ar    
  17 C17           -2.2898     5.9629     0.4771 C.ar    
  18 C18           -3.1860     4.8972     0.3504 C.ar    
  19 C19           -4.5630     5.1395     0.3548 C.ar    
  20 C20           -5.0342     6.4263     0.4838 C.ar    
  21 C21           -4.6479     8.8734     0.7549 C.ar    
  22 C22           -6.0205     9.1172     0.7596 C.ar    
  23 C23           -6.4888    10.4082     0.8953 C.ar    
  24 C24           -5.5991    11.4593     1.0265 C.ar    
  25 C25           -4.2360    11.2235     1.0225 C.ar    
  26 C26           -3.7562     9.9361     0.8928 C.ar    
  27 H27            2.5364     0.3363     0.1648 H       
  28 H28            4.4283     4.1524    -0.0943 H       
  29 H29            2.2308     5.2449    -0.2555 H       
  30 H30            0.1749     3.8960    -0.2189 H       
  31 H31           -4.1729     2.1554     0.9455 H       
  32 H32           -4.1454     2.3441    -0.8364 H       
  33 H33           -2.6163     0.6267    -1.0047 H       
  34 H34           -2.6481     0.4294     0.7771 H       
  35 H35           -2.0722     8.0719     0.7033 H       
  36 H36           -1.2258     5.7774     0.4735 H       
  37 H37           -5.2566     4.3175     0.2567 H       
  38 H38           -6.0978     6.6138     0.4875 H       
  39 H39           -6.7160     8.2973     0.6569 H       
  40 H40           -7.5519    10.5983     0.8987 H       
  41 H41           -5.9701    12.4681     1.1320 H       
  42 H42           -3.5461    12.0480     1.1253 H       
  43 H43           -2.6919     9.7526     0.8944 H       
@<TRIPOS>BOND
   1    1    2 2
   2    1    3 1
   3    1   10 am
   4    3    4 ar
   5    3    8 ar
   6    4    5 ar
   7    4   27 1
   8    5    6 ar
   9    5    9 1
  10    6    7 ar
  11    6   28 1
  12    7    8 ar
  13    7   29 1
  14    8   30 1
  15   10   11 1
  16   10   14 1
  17   11   12 2
  18   12   13 1
  19   12   18 1
  20   13   14 1
  21   13   31 1
  22   13   32 1
  23   14   33 1
  24   14   34 1
  25   15   16 ar
  26   15   20 ar
  27   15   21 1
  28   16   17 ar
  29   16   35 1
  30   17   18 ar
  31   17   36 1
  32   18   19 ar
  33   19   20 ar
  34   19   37 1
  35   20   38 1
  36   21   22 ar
  37   21   26 ar
  38   22   23 ar
  39   22   39 1
  40   23   24 ar
  41   23   40 1
  42   24   25 ar
  43   24   41 1
  44   25   26 ar
  45   25   42 1
  46   26   43 1

#	End of record

