#	Name: ASD02198582
#	Creating user name:	WinNT
#	Creation time:	15. 06. 2019 20:19

#	Modifying user name:	WinNT
#	Modification time:	15. 06. 2019 20:19

#	Program:	/corina/corina34_cracker 3.40 0067  02.08.2006

@<TRIPOS>MOLECULE
ASD02198582
  50   54    0    0    0
SMALL
NO_CHARGES


@<TRIPOS>ATOM
   1 C1             0.0072     1.5098     0.1334 C.2     
   2 C2             0.0745     0.1698    -0.0949 C.2     
   3 N3            -1.0519    -0.5605    -0.2642 N.pl3   
   4 N4            -2.2299    -0.0571    -0.2233 N.2     
   5 C5            -2.4375     1.2258    -0.0103 C.2     
   6 C6            -1.2792     2.1067     0.1922 C.2     
   7 C7            -0.9243    -1.9342    -0.4959 C.ar    
   8 C8            -1.3843    -3.8656    -1.8469 C.ar    
   9 C9            -0.6721    -4.6550    -0.9540 C.ar    
  10 C10           -0.0911    -4.0822     0.1704 C.ar    
  11 C11           -0.2165    -2.7272     0.3988 C.ar    
  12 C12           -3.8108     1.7687     0.0292 C.2     
  13 N13           -4.3731     2.4812     1.0507 N.pl3   
  14 N14           -5.6849     2.7994     0.6775 N.2     
  15 C15           -5.9150     2.3064    -0.5133 C.2     
  16 C16           -4.7638     1.6571    -0.9593 C.2     
  17 C17           -3.7494     2.8304     2.2553 C.ar    
  18 C18           -2.9558     1.9058     2.9215 C.ar    
  19 O19           -1.4172     3.3046     0.3939 O.2     
  20 C20           -3.9187     4.1037     2.7830 C.ar    
  21 C21           -3.3020     4.4450     3.9707 C.ar    
  22 C22           -2.5163     3.5205     4.6341 C.ar    
  23 C23           -2.3418     2.2533     4.1088 C.ar    
  24 C24           -1.5110    -2.5082    -1.6197 C.ar    
  25 F25           -2.2042    -1.7392    -2.4877 F       
  26 O26            1.1345     2.2511     0.3050 O.3     
  27 C27            2.3828     1.5592     0.2345 C.3     
  28 N28           -0.5437    -6.0315    -1.1844 N.pl3   
  29 C29            0.1289    -6.9152    -0.3851 C.2     
  30 C30           -1.0750    -6.7165    -2.2430 C.2     
  31 C31           -0.7368    -8.0170    -2.1159 C.2     
  32 C32            0.0276    -8.1431    -0.9362 C.2     
  33 F33           -1.0717    -9.0159    -2.9615 F       
  34 F34            0.5605    -9.2844    -0.4478 F       
  35 H35            1.0379    -0.3160    -0.1418 H       
  36 H36           -1.8358    -4.3114    -2.7208 H       
  37 H37            0.4624    -4.6974     0.8644 H       
  38 H38            0.2359    -2.2830     1.2731 H       
  39 H39           -6.8417     2.3918    -1.0613 H       
  40 H40           -4.6435     1.1518    -1.9062 H       
  41 H41           -2.8192     0.9159     2.5117 H       
  42 H42           -4.5317     4.8264     2.2650 H       
  43 H43           -3.4333     5.4351     4.3816 H       
  44 H44           -2.0345     3.7901     5.5624 H       
  45 H45           -1.7276     1.5334     4.6293 H       
  46 H46            2.4168     0.7913     1.0072 H       
  47 H47            2.4851     1.0933    -0.7456 H       
  48 H48            3.1988     2.2655     0.3879 H       
  49 H49            0.6506    -6.6722     0.5287 H       
  50 H50           -1.6633    -6.2903    -3.0421 H       
@<TRIPOS>BOND
   1    1    2 2
   2    1   26 1
   3    1    6 1
   4    2    3 1
   5    2   35 1
   6    3    4 1
   7    3    7 1
   8    4    5 2
   9    5    6 1
  10    5   12 1
  11    6   19 2
  12    7   24 ar
  13    7   11 ar
  14    8    9 ar
  15    8   24 ar
  16    8   36 1
  17    9   10 ar
  18    9   28 1
  19   10   11 ar
  20   10   37 1
  21   11   38 1
  22   12   13 1
  23   12   16 2
  24   13   14 1
  25   13   17 1
  26   14   15 2
  27   15   16 1
  28   15   39 1
  29   16   40 1
  30   17   20 ar
  31   17   18 ar
  32   18   23 ar
  33   18   41 1
  34   20   21 ar
  35   20   42 1
  36   21   22 ar
  37   21   43 1
  38   22   23 ar
  39   22   44 1
  40   23   45 1
  41   24   25 1
  42   26   27 1
  43   27   46 1
  44   27   47 1
  45   27   48 1
  46   28   29 1
  47   28   30 1
  48   29   32 2
  49   29   49 1
  50   30   31 2
  51   30   50 1
  52   31   32 1
  53   31   33 1
  54   32   34 1

#	End of record

