#	Name: ASD01880130
#	Creating user name:	WinNT
#	Creation time:	15. 06. 2019 19:40

#	Modifying user name:	WinNT
#	Modification time:	15. 06. 2019 19:40

#	Program:	/corina/corina34_cracker 3.40 0067  02.08.2006

@<TRIPOS>MOLECULE
ASD01880130
  49   53    0    0    0
SMALL
NO_CHARGES


@<TRIPOS>ATOM
   1 C1            -0.0169     1.3920     0.0097 C.ar    
   2 C2             0.0021    -0.0041     0.0020 C.ar    
   3 C3            -1.1973    -0.7169     0.0101 C.ar    
   4 C4            -2.3959    -0.0568     0.0251 C.ar    
   5 C5            -2.4281     1.3400     0.0330 C.ar    
   6 C6            -1.2204     2.0614     0.0305 C.ar    
   7 C7            -3.8073    -0.5946     0.0362 C.3     
   8 C8            -4.7338     0.6289     0.0520 C.3     
   9 C9            -3.8152     1.8263     0.0493 C.2     
  10 Cl10          -1.2472     3.7972     0.0402 Cl      
  11 Cl11           1.4735     2.2822     0.0002 Cl      
  12 C12            1.2945    -0.7279    -0.0152 C.ar    
  13 C13           -5.6204     0.6383    -1.1949 C.3     
  14 C14           -5.5955     0.6248     1.3162 C.3     
  15 C15           -6.5606     1.8692    -1.1906 C.3     
  16 C16           -6.9066     2.0861    -2.6782 C.3     
  17 C17           -5.7687     1.4454    -3.4921 C.3     
  18 C18           -4.7710     0.8615    -2.4707 C.3     
  19 O19           -4.1615     2.9887     0.0593 O.2     
  20 C20            2.2734    -0.3863    -0.9492 C.ar    
  21 C21            3.4748    -1.0595    -0.9648 C.ar    
  22 C22            3.7129    -2.0827    -0.0478 C.ar    
  23 C23            2.7351    -2.4244     0.8857 C.ar    
  24 C24            1.5357    -1.7476     0.9062 C.ar    
  25 C25            5.0070    -2.8083    -0.0657 C.2     
  26 N26            6.0349    -2.5922    -0.8990 N.2     
  27 N27            6.9646    -3.4294    -0.5853 N.2     
  28 N28            6.5612    -4.1520     0.4007 N.pl3   
  29 N29            5.3722    -3.7873     0.7384 N.2     
  30 H30           -1.1796    -1.7967     0.0042 H       
  31 H31           -3.9883    -1.1898    -0.8587 H       
  32 H32           -3.9705    -1.1994     0.9282 H       
  33 H33           -6.1941    -0.2858    -1.2661 H       
  34 H34           -4.9511     0.6419     2.1952 H       
  35 H35           -6.2389     1.5047     1.3202 H       
  36 H36           -6.2104    -0.2750     1.3339 H       
  37 H37           -7.4625     1.6583    -0.6160 H       
  38 H38           -6.0456     2.7412    -0.7876 H       
  39 H39           -7.8539     1.6021    -2.9156 H       
  40 H40           -6.9668     3.1525    -2.8959 H       
  41 H41           -6.1638     0.6505    -4.1246 H       
  42 H42           -5.2767     2.2009    -4.1048 H       
  43 H43           -3.9669     1.5708    -2.2745 H       
  44 H44           -4.3668    -0.0848    -2.8304 H       
  45 H45            2.0888     0.4057    -1.6599 H       
  46 H46            4.2325    -0.7952    -1.6876 H       
  47 H47            2.9200    -3.2170     1.5957 H       
  48 H48            0.7785    -2.0124     1.6293 H       
  49 H49            7.0736    -4.8575     0.8258 H       
@<TRIPOS>BOND
   1    1    2 ar
   2    1   11 1
   3    1    6 ar
   4    2    3 ar
   5    2   12 1
   6    3    4 ar
   7    3   30 1
   8    4    5 ar
   9    4    7 1
  10    5    6 ar
  11    5    9 1
  12    6   10 1
  13    7    8 1
  14    7   31 1
  15    7   32 1
  16    8    9 1
  17    8   13 1
  18    8   14 1
  19    9   19 2
  20   12   20 ar
  21   12   24 ar
  22   13   15 1
  23   13   18 1
  24   13   33 1
  25   14   34 1
  26   14   35 1
  27   14   36 1
  28   15   16 1
  29   15   37 1
  30   15   38 1
  31   16   17 1
  32   16   39 1
  33   16   40 1
  34   17   18 1
  35   17   41 1
  36   17   42 1
  37   18   43 1
  38   18   44 1
  39   20   21 ar
  40   20   45 1
  41   21   22 ar
  42   21   46 1
  43   22   23 ar
  44   22   25 1
  45   23   24 ar
  46   23   47 1
  47   24   48 1
  48   25   26 1
  49   25   29 2
  50   26   27 2
  51   27   28 1
  52   28   29 1
  53   28   49 1

#	End of record

