#	Name: ASD01120264
#	Creating user name:	WinNT
#	Creation time:	15. 06. 2019 18:59

#	Modifying user name:	WinNT
#	Modification time:	15. 06. 2019 18:59

#	Program:	/corina/corina34_cracker 3.40 0067  02.08.2006

@<TRIPOS>MOLECULE
ASD01120264
  31   31    0    0    0
SMALL
NO_CHARGES


@<TRIPOS>ATOM
   1 C1            -0.0147     1.5012     0.2731 C.3     
   2 C2             0.0008    -0.0287     0.2804 C.3     
   3 O3            -1.3410    -0.5188     0.2438 O.3     
   4 C4            -1.5042    -1.8583     0.2450 C.2     
   5 O5            -0.5324    -2.5894     0.2764 O.2     
   6 C6            -2.8086    -2.4137     0.2098 C.2     
   7 N7            -3.8506    -1.6298     0.1762 N.2     
   8 N8            -5.1392    -2.1786     0.1414 N.pl3   
   9 C9            -6.2544    -1.3396     0.1054 C.ar    
  10 C10           -6.0946     0.0363     0.2159 C.ar    
  11 C11           -7.2002     0.8632     0.1799 C.ar    
  12 C12           -8.4649     0.3234     0.0342 C.ar    
  13 C13           -8.6278    -1.0457    -0.0761 C.ar    
  14 C14           -7.5266    -1.8781    -0.0467 C.ar    
  15 N15           -7.7018    -3.3431    -0.1653 N.pl3   
  16 O16           -6.8936    -4.0044    -0.7921 O.2     
  17 O17           -8.6543    -3.8874     0.3641 O.2     
  18 C18           -2.9908    -3.9097     0.2112 C.3     
  19 H19            1.0088     1.8750     0.3010 H       
  20 H20           -0.5063     1.8553    -0.6330 H       
  21 H21           -0.5577     1.8632     1.1462 H       
  22 H22            0.5438    -0.3907    -0.5927 H       
  23 H23            0.4923    -0.3828     1.1865 H       
  24 H24           -5.2565    -3.1414     0.1423 H       
  25 H25           -5.1072     0.4585     0.3301 H       
  26 H26           -7.0768     1.9326     0.2660 H       
  27 H27           -9.3277     0.9725     0.0067 H       
  28 H28           -9.6171    -1.4638    -0.1894 H       
  29 H29           -3.0644    -4.2658     1.2388 H       
  30 H30           -3.9030    -4.1651    -0.3281 H       
  31 H31           -2.1368    -4.3802    -0.2760 H       
@<TRIPOS>BOND
   1    1    2 1
   2    1   19 1
   3    1   20 1
   4    1   21 1
   5    2    3 1
   6    2   22 1
   7    2   23 1
   8    3    4 1
   9    4    5 2
  10    4    6 1
  11    6    7 2
  12    6   18 1
  13    7    8 1
  14    8    9 1
  15    8   24 1
  16    9   10 ar
  17    9   14 ar
  18   10   11 ar
  19   10   25 1
  20   11   12 ar
  21   11   26 1
  22   12   13 ar
  23   12   27 1
  24   13   14 ar
  25   13   28 1
  26   14   15 1
  27   15   16 2
  28   15   17 2
  29   18   29 1
  30   18   30 1
  31   18   31 1

#	End of record

