#	Name: ASD02320010
#	Creating user name:	WinNT
#	Creation time:	15. 06. 2019 20:20

#	Modifying user name:	WinNT
#	Modification time:	15. 06. 2019 20:20

#	Program:	/corina/corina34_cracker 3.40 0067  02.08.2006

@<TRIPOS>MOLECULE
ASD02320010
  50   51    0    0    0
SMALL
NO_CHARGES


@<TRIPOS>ATOM
   1 C1            -0.0135     1.4141     0.4332 C.ar    
   2 C2             0.0070     0.0412     0.6385 C.ar    
   3 C3             1.2228    -0.6361     0.7328 C.ar    
   4 C4             2.4107     0.0584     0.6225 C.ar    
   5 C5             2.3912     1.4432     0.4154 C.ar    
   6 C6             1.1672     2.1153     0.3215 C.ar    
   7 C7             3.6310     3.5244     0.0978 C.2     
   8 C8             3.6522     2.1886     0.2976 C.2     
   9 C9             5.0717     6.5247     1.0196 C.ar    
  10 C10            4.8664     5.7342    -0.1225 C.ar    
  11 C11            4.8861     4.2663    -0.0195 C.2     
  12 C12            5.0511     7.9035     0.9142 C.ar    
  13 C13            4.8281     8.5064    -0.3169 C.ar    
  14 C14            4.6241     7.7315    -1.4517 C.ar    
  15 C15            4.6415     6.3519    -1.3636 C.ar    
  16 O16            5.9481     3.6689    -0.0319 O.2     
  17 O17            4.4425     5.5968    -2.4731 O.3     
  18 S18            5.7200     5.2539    -3.2260 S.o2    
  19 O19            5.3164     4.6456    -4.4451 O.2     
  20 O20            6.5419     6.4117    -3.1698 O.2     
  21 O21            6.4392     4.1771    -2.4260 O.3     
  22 Na22           5.6160     2.3716    -2.5762 Du      
  23 O23           -1.1603    -0.6445     0.7483 O.3     
  24 S24           -1.7008    -1.1628    -0.5767 S.o2    
  25 O25           -3.0018    -1.6678    -0.3094 O.2     
  26 O26           -1.4430    -0.1496    -1.5391 O.2     
  27 O27           -0.8484    -2.3596    -0.9738 O.3     
  28 Na28          -1.2336    -4.0096     0.0698 Du      
  29 O29            4.8094     9.8601    -0.4118 O.3     
  30 C30            5.0261    10.5980     0.7926 C.3     
  31 O31            5.2842     5.9376     2.2241 O.3     
  32 C32            5.4854     6.8047     3.3420 C.3     
  33 O33            1.2379    -1.9810     0.9340 O.3     
  34 C34            2.5183    -2.6096     1.0207 C.3     
  35 H35           -0.9574     1.9331     0.3564 H       
  36 H36            3.3526    -0.4648     0.6961 H       
  37 H37            1.1483     3.1832     0.1614 H       
  38 H38            2.6874     4.0446     0.0247 H       
  39 H39            4.5958     1.6684     0.3707 H       
  40 H40            5.2085     8.5130     1.7917 H       
  41 H41            4.4510     8.2081    -2.4052 H       
  42 H42            4.9859    11.6657     0.5769 H       
  43 H43            4.2530    10.3446     1.5180 H       
  44 H44            6.0046    10.3465     1.2017 H       
  45 H45            6.3594     7.4311     3.1632 H       
  46 H46            4.6069     7.4361     3.4748 H       
  47 H47            5.6435     6.2084     4.2406 H       
  48 H48            2.3875    -3.6797     1.1816 H       
  49 H49            3.0669    -2.4461     0.0931 H       
  50 H50            3.0771    -2.1826     1.8535 H       
@<TRIPOS>BOND
   1    1    2 ar
   2    1    6 ar
   3    1   35 1
   4    2    3 ar
   5    2   23 1
   6    3    4 ar
   7    3   33 1
   8    4    5 ar
   9    4   36 1
  10    5    6 ar
  11    5    8 1
  12    6   37 1
  13    7    8 2
  14    7   11 1
  15    7   38 1
  16    8   39 1
  17    9   10 ar
  18    9   12 ar
  19    9   31 1
  20   10   11 1
  21   10   15 ar
  22   11   16 2
  23   12   13 ar
  24   12   40 1
  25   13   14 ar
  26   13   29 1
  27   14   15 ar
  28   14   41 1
  29   15   17 1
  30   17   18 1
  31   18   19 2
  32   18   20 2
  33   18   21 1
  34   21   22 1
  35   23   24 1
  36   24   25 2
  37   24   26 2
  38   24   27 1
  39   27   28 1
  40   29   30 1
  41   30   42 1
  42   30   43 1
  43   30   44 1
  44   31   32 1
  45   32   45 1
  46   32   46 1
  47   32   47 1
  48   33   34 1
  49   34   48 1
  50   34   49 1
  51   34   50 1

#	End of record

