#	Name: ASD02198128
#	Creating user name:	WinNT
#	Creation time:	15. 06. 2019 20:18

#	Modifying user name:	WinNT
#	Modification time:	15. 06. 2019 20:18

#	Program:	/corina/corina34_cracker 3.40 0067  02.08.2006

@<TRIPOS>MOLECULE
ASD02198128
  44   47    0    0    0
SMALL
NO_CHARGES


@<TRIPOS>ATOM
   1 C1            -0.0167     1.3799     0.0096 C.2     
   2 C2             0.0021    -0.0041     0.0020 C.2     
   3 C3            -1.1887    -0.7995     0.0091 C.1     
   4 S4             1.6265     2.0020    -0.0027 S.3     
   5 C5             2.2951     0.3774    -0.0178 C.2     
   6 C6             1.2783    -0.5535    -0.0131 C.2     
   7 C7             3.6766     0.0692    -0.0327 C.2     
   8 C8             4.6263     1.1028    -0.0357 C.2     
   9 O9             4.0432    -1.0992    -0.0429 O.2     
  10 N10            1.5090    -1.9199    -0.0227 N.pl3   
  11 N11           -1.1507     2.1518     0.0194 N.pl3   
  12 N12           -2.1333    -1.4305     0.0147 N.1     
  13 S13            4.2694     2.6145    -0.0230 S.o     
  14 C14           -1.0423     3.6128     0.0268 C.3     
  15 C15           -2.3128     4.2387    -0.5746 C.3     
  16 C16            5.9632     3.2907    -0.0342 C.3     
  17 C17            6.8247     2.0417    -0.0499 C.ar    
  18 C18            6.0232     0.8954    -0.0445 C.ar    
  19 C19            8.2012     1.9398    -0.0631 C.ar    
  20 C20            8.8159     0.6996    -0.0765 C.ar    
  21 C21            8.0433    -0.4515    -0.0766 C.ar    
  22 C22            6.6760    -0.3704    -0.0581 C.ar    
  23 C23           -2.9397     5.1123     0.5316 C.3     
  24 C24           -1.7534     5.4469     1.4695 C.3     
  25 C25           -0.9414     4.1279     1.4774 C.3     
  26 H26            2.4181    -2.2581    -0.0332 H       
  27 H27            0.7616    -2.5380    -0.0188 H       
  28 H28           -2.0243     1.7303     0.0214 H       
  29 H29            3.8468     2.8362    -1.2805 H       
  30 H30           -0.1668     3.9248    -0.5427 H       
  31 H31           -2.0539     4.8552    -1.4354 H       
  32 H32           -3.0101     3.4555    -0.8719 H       
  33 H33            6.1341     3.8888    -0.9293 H       
  34 H34            6.1505     3.8776     0.8650 H       
  35 H35            8.8041     2.8358    -0.0634 H       
  36 H36            9.8936     0.6290    -0.0872 H       
  37 H37            8.5229    -1.4191    -0.0875 H       
  38 H38            6.0869    -1.2756    -0.0585 H       
  39 H39           -3.3586     6.0242     0.1061 H       
  40 H40           -3.7060     4.5544     1.0699 H       
  41 H41           -1.1581     6.2644     1.0628 H       
  42 H42           -2.1089     5.6876     2.4713 H       
  43 H43           -1.3849     3.4110     2.1684 H       
  44 H44            0.0981     4.3214     1.7421 H       
@<TRIPOS>BOND
   1    1    2 2
   2    1    4 1
   3    1   11 1
   4    2    3 1
   5    2    6 1
   6    3   12 3
   7    4    5 1
   8    5    6 2
   9    5    7 1
  10    6   10 1
  11    7    8 1
  12    7    9 2
  13    8   13 2
  14    8   18 1
  15   10   26 1
  16   10   27 1
  17   11   14 1
  18   11   28 1
  19   13   16 1
  20   13   29 1
  21   14   15 1
  22   14   25 1
  23   14   30 1
  24   15   23 1
  25   15   31 1
  26   15   32 1
  27   16   17 1
  28   16   33 1
  29   16   34 1
  30   17   18 ar
  31   17   19 ar
  32   18   22 ar
  33   19   20 ar
  34   19   35 1
  35   20   21 ar
  36   20   36 1
  37   21   22 ar
  38   21   37 1
  39   22   38 1
  40   23   24 1
  41   23   39 1
  42   23   40 1
  43   24   25 1
  44   24   41 1
  45   24   42 1
  46   25   43 1
  47   25   44 1

#	End of record

