#	Name: ASD01900101
#	Creating user name:	WinNT
#	Creation time:	15. 06. 2019 19:51

#	Modifying user name:	WinNT
#	Modification time:	15. 06. 2019 19:51

#	Program:	/corina/corina34_cracker 3.40 0067  02.08.2006

@<TRIPOS>MOLECULE
ASD01900101
  48   51    0    0    0
SMALL
NO_CHARGES


@<TRIPOS>ATOM
   1 C1            -0.0168     1.3890     0.0097 C.ar    
   2 C2             0.0021    -0.0041     0.0020 C.ar    
   3 C3             1.2224    -0.6606    -0.0131 C.ar    
   4 C4             2.3820     0.0992    -0.0201 C.ar    
   5 C5             2.2884     1.4815    -0.0118 C.ar    
   6 N6             1.1169     2.0792     0.0026 N.ar    
   7 C7            -1.3131     2.1060     0.0197 C.2     
   8 O8            -2.3544     1.4790     0.0212 O.2     
   9 N9            -1.3379     3.4535     0.0271 N.am    
  10 N10           -4.0732     5.7272     0.0534 N.am    
  11 N11           -4.7377     4.4942     0.0499 N.2     
  12 C12           -3.8404     3.5422     0.0399 C.2     
  13 C13           -2.5688     4.1343     0.0366 C.2     
  14 C14           -2.7375     5.4816     0.0451 C.2     
  15 S15           -4.7895     7.2203     0.0593 S.o2    
  16 O16           -3.8372     8.1244    -0.4836 O.2     
  17 O17           -6.0907     7.0433    -0.4837 O.2     
  18 C18           -5.0126     7.6851     1.7442 C.ar    
  19 C19           -4.0194     8.3855     2.4039 C.ar    
  20 C20           -4.1909     8.7513     3.7245 C.ar    
  21 C21           -5.3629     8.4149     4.3901 C.ar    
  22 C22           -6.3586     7.7113     3.7244 C.ar    
  23 C23           -6.1828     7.3535     2.4022 C.ar    
  24 O24           -6.7945    10.1105     7.8590 O.3     
  25 C25           -6.9705     8.6991     7.7096 C.3     
  26 C26           -6.8437     8.3283     6.2296 C.3     
  27 N27           -5.5395     8.7830     5.7259 N.3     
  28 C28           -5.3931    10.2359     5.8958 C.3     
  29 C29           -5.5345    10.5876     7.3792 C.3     
  30 H30           -0.9212    -0.5644     0.0082 H       
  31 H31            1.2690    -1.7395    -0.0190 H       
  32 H32            3.3489    -0.3818    -0.0315 H       
  33 H33            3.1898     2.0764    -0.0168 H       
  34 H34           -0.5069     3.9539     0.0259 H       
  35 H35           -4.0440     2.4815     0.0350 H       
  36 H36           -1.9523     6.2231     0.0452 H       
  37 H37           -3.1083     8.6463     1.8859 H       
  38 H38           -3.4147     9.2980     4.2393 H       
  39 H39           -7.2709     7.4483     4.2390 H       
  40 H40           -6.9585     6.8106     1.8826 H       
  41 H41           -6.2065     8.1743     8.2831 H       
  42 H42           -7.9583     8.4151     8.0726 H       
  43 H43           -6.9203     7.2468     6.1175 H       
  44 H44           -7.6407     8.8109     5.6639 H       
  45 H45           -4.4109    10.5468     5.5401 H       
  46 H46           -6.1670    10.7489     5.3248 H       
  47 H47           -5.4837    11.6693     7.5032 H       
  48 H48           -4.7287    10.1177     7.9430 H       
@<TRIPOS>BOND
   1    1    2 ar
   2    1    6 ar
   3    1    7 1
   4    2    3 ar
   5    2   30 1
   6    3    4 ar
   7    3   31 1
   8    4    5 ar
   9    4   32 1
  10    5    6 ar
  11    5   33 1
  12    7    8 2
  13    7    9 am
  14    9   13 1
  15    9   34 1
  16   10   11 1
  17   10   14 1
  18   10   15 am
  19   11   12 2
  20   12   13 1
  21   12   35 1
  22   13   14 2
  23   14   36 1
  24   15   16 2
  25   15   17 2
  26   15   18 1
  27   18   19 ar
  28   18   23 ar
  29   19   20 ar
  30   19   37 1
  31   20   21 ar
  32   20   38 1
  33   21   22 ar
  34   21   27 1
  35   22   23 ar
  36   22   39 1
  37   23   40 1
  38   24   25 1
  39   24   29 1
  40   25   26 1
  41   25   41 1
  42   25   42 1
  43   26   27 1
  44   26   43 1
  45   26   44 1
  46   27   28 1
  47   28   29 1
  48   28   45 1
  49   28   46 1
  50   29   47 1
  51   29   48 1

#	End of record

