#	Name: ASD01150038
#	Creating user name:	WinNT
#	Creation time:	15. 06. 2019 19:03

#	Modifying user name:	WinNT
#	Modification time:	15. 06. 2019 19:03

#	Program:	/corina/corina34_cracker 3.40 0067  02.08.2006

@<TRIPOS>MOLECULE
ASD01150038
  45   48    0    0    0
SMALL
NO_CHARGES


@<TRIPOS>ATOM
   1 C1            -0.0158     1.3138     0.0093 C.ar    
   2 N2             0.0021    -0.0041     0.0020 N.ar    
   3 C3            -1.1219    -0.7042     0.0090 C.ar    
   4 C4            -2.3393    -0.0282     0.0242 C.ar    
   5 C5            -2.3161     1.3789     0.0316 C.ar    
   6 N6            -1.1413     1.9993     0.0291 N.ar    
   7 C7            -3.6236    -0.7699     0.0320 C.ar    
   8 C8            -3.8505    -1.7855    -0.8952 C.ar    
   9 C9            -5.0472    -2.4726    -0.8829 C.ar    
  10 C10           -6.0208    -2.1548     0.0469 C.ar    
  11 C11           -5.8011    -1.1479     0.9695 C.ar    
  12 C12           -4.6059    -0.4579     0.9703 C.ar    
  13 C13           -7.3260    -2.9082     0.0545 C.3     
  14 F14           -7.2169    -4.0215     0.8947 F       
  15 F15           -8.3452    -2.0706     0.5202 F       
  16 F16           -7.6274    -3.3319    -1.2442 F       
  17 C17            1.2930     2.0608     0.0008 C.3     
  18 N18           -3.4950     2.1028     0.0467 N.pl3   
  19 C19           -3.4553     3.5672     0.0542 C.3     
  20 C20           -4.7532     4.1543    -0.5399 C.3     
  21 C21           -5.0215     5.4116     0.2591 C.ar    
  22 C22           -4.2883     5.3857     1.4311 C.ar    
  23 C23           -3.4775     4.1093     1.4992 C.3     
  24 C24           -5.8416     6.4924    -0.0169 C.ar    
  25 C25           -5.9291     7.5442     0.8744 C.ar    
  26 C26           -5.1962     7.5184     2.0459 C.ar    
  27 C27           -4.3779     6.4405     2.3235 C.ar    
  28 H28           -1.0948    -1.7838     0.0026 H       
  29 H29           -3.0913    -2.0340    -1.6220 H       
  30 H30           -5.2241    -3.2598    -1.6009 H       
  31 H31           -6.5647    -0.9039     1.6932 H       
  32 H32           -4.4354     0.3282     1.6911 H       
  33 H33            1.5987     2.2464    -1.0289 H       
  34 H34            1.1723     3.0111     0.5209 H       
  35 H35            2.0546     1.4652     0.5042 H       
  36 H36           -4.3479     1.6407     0.0524 H       
  37 H37           -2.5820     3.9323    -0.4863 H       
  38 H38           -4.6107     4.3984    -1.5926 H       
  39 H39           -5.5758     3.4488    -0.4225 H       
  40 H40           -3.9571     3.3917     2.1650 H       
  41 H41           -2.4640     4.3227     1.8387 H       
  42 H42           -6.4146     6.5133    -0.9321 H       
  43 H43           -6.5692     8.3861     0.6557 H       
  44 H44           -5.2631     8.3400     2.7436 H       
  45 H45           -3.8055     6.4210     3.2391 H       
@<TRIPOS>BOND
   1    1    2 ar
   2    1   17 1
   3    1    6 ar
   4    2    3 ar
   5    3    4 ar
   6    3   28 1
   7    4    5 ar
   8    4    7 1
   9    5    6 ar
  10    5   18 1
  11    7    8 ar
  12    7   12 ar
  13    8    9 ar
  14    8   29 1
  15    9   10 ar
  16    9   30 1
  17   10   11 ar
  18   10   13 1
  19   11   12 ar
  20   11   31 1
  21   12   32 1
  22   13   14 1
  23   13   15 1
  24   13   16 1
  25   17   33 1
  26   17   34 1
  27   17   35 1
  28   18   19 1
  29   18   36 1
  30   19   20 1
  31   19   23 1
  32   19   37 1
  33   20   21 1
  34   20   38 1
  35   20   39 1
  36   21   22 ar
  37   21   24 ar
  38   22   23 1
  39   22   27 ar
  40   23   40 1
  41   23   41 1
  42   24   25 ar
  43   24   42 1
  44   25   26 ar
  45   25   43 1
  46   26   27 ar
  47   26   44 1
  48   27   45 1

#	End of record

