#	Name: ASD01871032
#	Creating user name:	WinNT
#	Creation time:	15. 06. 2019 19:39

#	Modifying user name:	WinNT
#	Modification time:	15. 06. 2019 19:39

#	Program:	/corina/corina34_cracker 3.40 0067  02.08.2006

@<TRIPOS>MOLECULE
ASD01871032
  25   27    0    0    0
SMALL
NO_CHARGES


@<TRIPOS>ATOM
   1 C1            -0.0162     1.3415     0.0094 C.2     
   2 C2             0.0021    -0.0041     0.0020 C.2     
   3 S3            -1.6655    -0.5715     0.0149 S.3     
   4 C4            -2.2298     1.0417     0.0289 C.2     
   5 N5            -1.2348     1.8680     0.0296 N.2     
   6 O6            -3.5360     1.4040     0.0429 O.3     
   7 C7            -4.4700     0.4199     0.0466 C.ar    
   8 C8            -5.8186     0.7516     0.0608 C.ar    
   9 N9            -4.0875    -0.8465     0.0311 N.ar    
  10 C10           -4.9623    -1.8339     0.0340 C.ar    
  11 C11           -6.3192    -1.5774     0.0530 C.ar    
  12 C12           -6.7614    -0.2619     0.0644 C.ar    
  13 C13            1.2196     2.1659     0.0020 C.2     
  14 C14            2.4342     1.8495     0.6401 C.2     
  15 N15            3.2814     2.8167     0.4047 N.2     
  16 N16            2.6461     3.7814    -0.3866 N.pl3   
  17 C17            1.3852     3.3635    -0.6288 C.2     
  18 Cl18           1.4203    -1.0051    -0.0169 Cl      
  19 H19           -6.1276     1.7864     0.0693 H       
  20 H20           -4.6130    -2.8558     0.0211 H       
  21 H21           -7.0286    -2.3917     0.0548 H       
  22 H22           -7.8170    -0.0342     0.0796 H       
  23 H23            2.6316     0.9620     1.2229 H       
  24 H24            3.0441     4.6055    -0.7083 H       
  25 H25            0.6406     3.8863    -1.2107 H       
@<TRIPOS>BOND
   1    1    2 2
   2    1   13 1
   3    1    5 1
   4    2    3 1
   5    2   18 1
   6    3    4 1
   7    4    5 2
   8    4    6 1
   9    6    7 1
  10    7    8 ar
  11    7    9 ar
  12    8   12 ar
  13    8   19 1
  14    9   10 ar
  15   10   11 ar
  16   10   20 1
  17   11   12 ar
  18   11   21 1
  19   12   22 1
  20   13   14 1
  21   13   17 2
  22   14   15 2
  23   14   23 1
  24   15   16 1
  25   16   17 1
  26   16   24 1
  27   17   25 1

#	End of record

