#	Name: ASD03092185
#	Creating user name:	WinNT
#	Creation time:	15. 06. 2019 20:32

#	Modifying user name:	WinNT
#	Modification time:	15. 06. 2019 20:32

#	Program:	/corina/corina34_cracker 3.40 0067  02.08.2006

@<TRIPOS>MOLECULE
ASD03092185
  52   55    0    0    0
SMALL
NO_CHARGES


@<TRIPOS>ATOM
   1 N1            -0.0654     1.2625    -0.3056 N.pl3   
   2 C2            -0.2404    -0.0007     0.1767 C.2     
   3 C3            -1.5832    -0.1979     0.3297 C.2     
   4 C4            -2.2364     0.9748    -0.0698 C.2     
   5 N5            -1.3301     1.8482    -0.4441 N.2     
   6 C6             0.8280    -0.9783     0.4785 C.ar    
   7 C7             2.0905    -0.8699    -0.1153 C.ar    
   8 C8             3.0577    -1.8033     0.1948 C.ar    
   9 N9             2.8047    -2.7868     1.0371 N.ar    
  10 C10            1.6283    -2.9255     1.6188 C.ar    
  11 C11            0.6060    -2.0340     1.3703 C.ar    
  12 C12            1.2178     1.8967    -0.6175 C.3     
  13 N13           -3.6210     1.1824    -0.0661 N.pl3   
  14 C14           -4.1402     2.4434    -0.3799 C.ar    
  15 C15           -5.4185     2.5557    -0.9103 C.ar    
  16 C16           -5.9327     3.8007    -1.2202 C.ar    
  17 C17           -5.1747     4.9395    -1.0033 C.ar    
  18 C18           -3.8917     4.8302    -0.4714 C.ar    
  19 C19           -3.3793     3.5833    -0.1557 C.ar    
  20 O20           -3.3593     6.0819    -0.3558 O.3     
  21 O21           -5.4454     6.2609    -1.2206 O.3     
  22 C22           -4.4777     6.9849    -0.4380 C.3     
  23 F23           -4.9830     7.2589     0.8375 F       
  24 F24           -4.1075     8.1682    -1.0861 F       
  25 C25            1.5051     1.7576    -2.1139 C.3     
  26 C26            2.8359     2.3896    -2.4308 C.2     
  27 N27            3.2991     2.3866    -3.6965 N.am    
  28 C28            1.4009    -4.0703     2.5720 C.3     
  29 C29            4.5928     3.0010    -4.0046 C.3     
  30 O30            3.4902     2.9010    -1.5469 O.2     
  31 C31            2.5087     1.7689    -4.7642 C.3     
  32 H32           -2.0568    -1.0978     0.6934 H       
  33 H33            2.3043    -0.0679    -0.8062 H       
  34 H34            4.0351    -1.7282    -0.2583 H       
  35 H35           -0.3542    -2.1535     1.8501 H       
  36 H36            1.1749     2.9532    -0.3525 H       
  37 H37            2.0108     1.4113    -0.0486 H       
  38 H38           -4.2203     0.4522     0.1541 H       
  39 H39           -6.0114     1.6693    -1.0811 H       
  40 H40           -6.9272     3.8856    -1.6326 H       
  41 H41           -2.3851     3.4966     0.2572 H       
  42 H42            1.5314     0.7015    -2.3821 H       
  43 H43            0.7209     2.2575    -2.6824 H       
  44 H44            1.6630    -3.7588     3.5831 H       
  45 H45            0.3517    -4.3643     2.5430 H       
  46 H46            2.0234    -4.9159     2.2795 H       
  47 H47            5.3770     2.5011    -3.4360 H       
  48 H48            4.7975     2.9019    -5.0706 H       
  49 H49            4.5665     4.0572    -3.7363 H       
  50 H50            1.8448     2.5141    -5.2023 H       
  51 H51            3.1770     1.3808    -5.5329 H       
  52 H52            1.9163     0.9522    -4.3517 H       
@<TRIPOS>BOND
   1    1    2 1
   2    1   12 1
   3    1    5 1
   4    2    3 2
   5    2    6 1
   6    3    4 1
   7    3   32 1
   8    4    5 2
   9    4   13 1
  10    6    7 ar
  11    6   11 ar
  12    7    8 ar
  13    7   33 1
  14    8    9 ar
  15    8   34 1
  16    9   10 ar
  17   10   11 ar
  18   10   28 1
  19   11   35 1
  20   12   25 1
  21   12   36 1
  22   12   37 1
  23   13   14 1
  24   13   38 1
  25   14   15 ar
  26   14   19 ar
  27   15   16 ar
  28   15   39 1
  29   16   17 ar
  30   16   40 1
  31   17   18 ar
  32   17   21 1
  33   18   19 ar
  34   18   20 1
  35   19   41 1
  36   20   22 1
  37   21   22 1
  38   22   23 1
  39   22   24 1
  40   25   26 1
  41   25   42 1
  42   25   43 1
  43   26   27 am
  44   26   30 2
  45   27   29 1
  46   27   31 1
  47   28   44 1
  48   28   45 1
  49   28   46 1
  50   29   47 1
  51   29   48 1
  52   29   49 1
  53   31   50 1
  54   31   51 1
  55   31   52 1

#	End of record

