#	Name: ASD03092725
#	Creating user name:	WinNT
#	Creation time:	15. 06. 2019 20:33

#	Modifying user name:	WinNT
#	Modification time:	15. 06. 2019 20:33

#	Program:	/corina/corina34_cracker 3.40 0067  02.08.2006

@<TRIPOS>MOLECULE
ASD03092725
  44   46    0    0    0
SMALL
NO_CHARGES


@<TRIPOS>ATOM
   1 C1             0.0248     1.1858     0.0030 C.2     
   2 O2            -0.6776     1.1955     0.9958 O.2     
   3 C3             2.5228     1.2868     0.1078 C.ar    
   4 C4             1.2862     1.9475    -0.0146 C.ar    
   5 C5             1.2746     3.3389    -0.1537 C.ar    
   6 C6             2.4962     4.0113    -0.1648 C.ar    
   7 C7             3.6779     3.2813    -0.0380 C.ar    
   8 N8             3.6567     1.9706     0.0916 N.ar    
   9 N9             2.5538    -0.0870     0.2518 N.pl3   
  10 C10            3.8372    -0.7933     0.2658 C.3     
  11 C11            3.5917    -2.2938     0.4364 C.3     
  12 C12            4.9321    -3.0315     0.4509 C.3     
  13 C13            2.5384     5.4874    -0.3104 C.ar    
  14 C14            3.7622     6.1538    -0.3207 C.ar    
  15 C15            3.7969     7.5265    -0.4562 C.ar    
  16 C16            2.6173     8.2422    -0.5819 C.ar    
  17 C17            1.3984     7.5837    -0.5722 C.ar    
  18 C18            1.3547     6.2107    -0.4428 C.ar    
  19 F19            2.6558     9.5862    -0.7140 F       
  20 C20           -0.3834     0.4058    -1.1827 C.ar    
  21 C21           -1.5153    -0.4115    -1.1288 C.ar    
  22 C22           -1.8919    -1.1368    -2.2384 C.ar    
  23 C23           -1.1493    -1.0569    -3.4070 C.ar    
  24 C24           -0.0246    -0.2476    -3.4662 C.ar    
  25 C25            0.3576     0.4869    -2.3646 C.ar    
  26 F26           -1.5228    -1.7704    -4.4917 F       
  27 H27            0.3441     3.8784    -0.2504 H       
  28 H28            4.6257     3.7990    -0.0465 H       
  29 H29            1.7257    -0.5838     0.3438 H       
  30 H30            4.3601    -0.6152    -0.6739 H       
  31 H31            4.4440    -0.4279     1.0942 H       
  32 H32            3.0687    -2.4719     1.3760 H       
  33 H33            2.9849    -2.6592    -0.3921 H       
  34 H34            5.4550    -2.8534    -0.4887 H       
  35 H35            5.5389    -2.6661     1.2794 H       
  36 H36            4.7572    -4.1005     0.5725 H       
  37 H37            4.6822     5.5967    -0.2224 H       
  38 H38            4.7449     8.0438    -0.4640 H       
  39 H39            0.4813     8.1455    -0.6704 H       
  40 H40            0.4043     5.6977    -0.4398 H       
  41 H41           -2.0939    -0.4751    -0.2190 H       
  42 H42           -2.7666    -1.7689    -2.1979 H       
  43 H43            0.5503    -0.1897    -4.3786 H       
  44 H44            1.2311     1.1202    -2.4131 H       
@<TRIPOS>BOND
   1    1    2 2
   2    1    4 1
   3    1   20 1
   4    3    4 ar
   5    3    8 ar
   6    3    9 1
   7    4    5 ar
   8    5    6 ar
   9    5   27 1
  10    6    7 ar
  11    6   13 1
  12    7    8 ar
  13    7   28 1
  14    9   10 1
  15    9   29 1
  16   10   11 1
  17   10   30 1
  18   10   31 1
  19   11   12 1
  20   11   32 1
  21   11   33 1
  22   12   34 1
  23   12   35 1
  24   12   36 1
  25   13   14 ar
  26   13   18 ar
  27   14   15 ar
  28   14   37 1
  29   15   16 ar
  30   15   38 1
  31   16   17 ar
  32   16   19 1
  33   17   18 ar
  34   17   39 1
  35   18   40 1
  36   20   21 ar
  37   20   25 ar
  38   21   22 ar
  39   21   41 1
  40   22   23 ar
  41   22   42 1
  42   23   24 ar
  43   23   26 1
  44   24   25 ar
  45   24   43 1
  46   25   44 1

#	End of record

