#	Name: ASD05720042
#	Creating user name:	WinNT
#	Creation time:	15. 06. 2019 21:01

#	Modifying user name:	WinNT
#	Modification time:	15. 06. 2019 21:01

#	Program:	/corina/corina34_cracker 3.40 0067  02.08.2006

@<TRIPOS>MOLECULE
ASD05720042
  48   52    0    0    0
SMALL
NO_CHARGES


@<TRIPOS>ATOM
   1 O1             1.4777     1.7398     0.1842 O.3     
   2 C2             1.7514     0.5159    -0.2808 C.2     
   3 N3             1.2591    -0.4742     0.4763 N.am    
   4 C4             0.5468     0.1119     1.6220 C.3     
   5 C5             0.7022     1.6306     1.4129 C.3     
   6 O6             2.3878     0.3197    -1.2969 O.2     
   7 C7             1.1984    -0.3189     2.9376 C.3     
   8 C8             1.0355    -1.8296     3.1167 C.3     
   9 C9             1.5625    -2.2397     4.4933 C.3     
  10 C10            2.6183    -3.5819    -0.6632 C.2     
  11 N11            2.4685    -2.2782    -0.4094 N.2     
  12 C12            1.3982    -1.8320     0.2205 C.2     
  13 C13            0.3961    -2.7331     0.6344 C.2     
  14 C14            0.5444    -4.0529     0.3793 C.2     
  15 N15            1.6644    -4.4850    -0.2752 N.pl3   
  16 N16            2.0895    -5.7578    -0.6722 N.2     
  17 C17            3.2479    -5.6581    -1.2766 C.2     
  18 C18            3.6283    -4.3108    -1.3053 C.2     
  19 C19            4.8662    -3.7599    -1.9009 C.ar    
  20 C20            6.1091    -4.2740    -1.5275 C.ar    
  21 C21            7.2621    -3.7600    -2.0830 C.ar    
  22 C22            7.1847    -2.7253    -3.0187 C.ar    
  23 C23            5.9423    -2.2130    -3.3906 C.ar    
  24 C24            4.7906    -2.7300    -2.8403 C.ar    
  25 N25            9.8399    -0.9978    -4.7914 N.pl3   
  26 N26            8.4807    -1.2019    -4.5030 N.2     
  27 C27            8.4238    -2.1718    -3.6161 C.2     
  28 N28            9.6717    -2.5765    -3.3420 N.2     
  29 C29           10.5266    -1.8784    -4.0418 C.2     
  30 F30            8.4657    -4.2563    -1.7222 F       
  31 H31           -0.5056    -0.1713     1.6041 H       
  32 H32            1.2429     2.0779     2.2470 H       
  33 H33           -0.2734     2.1015     1.2921 H       
  34 H34            2.2589    -0.0677     2.9171 H       
  35 H35            0.7182     0.1993     3.7677 H       
  36 H36           -0.0193    -2.0931     3.0382 H       
  37 H37            1.5987    -2.3502     2.3422 H       
  38 H38            0.9438    -1.7879     5.2686 H       
  39 H39            1.5275    -3.3251     4.5871 H       
  40 H40            2.5916    -1.8984     4.6048 H       
  41 H41           -0.4815    -2.3729     1.1506 H       
  42 H42           -0.2130    -4.7576     0.6894 H       
  43 H43            3.8148    -6.4801    -1.6882 H       
  44 H44            6.1679    -5.0735    -0.8038 H       
  45 H45            5.8830    -1.4132    -4.1139 H       
  46 H46            3.8286    -2.3355    -3.1323 H       
  47 H47           10.2105    -0.3514    -5.4125 H       
  48 H48           11.6007    -1.9897    -4.0217 H       
@<TRIPOS>BOND
   1    1    2 1
   2    1    5 1
   3    2    3 am
   4    2    6 2
   5    3    4 1
   6    3   12 1
   7    4    5 1
   8    4    7 1
   9    4   31 1
  10    5   32 1
  11    5   33 1
  12    7    8 1
  13    7   34 1
  14    7   35 1
  15    8    9 1
  16    8   36 1
  17    8   37 1
  18    9   38 1
  19    9   39 1
  20    9   40 1
  21   10   11 1
  22   10   15 1
  23   10   18 2
  24   11   12 2
  25   12   13 1
  26   13   14 2
  27   13   41 1
  28   14   15 1
  29   14   42 1
  30   15   16 1
  31   16   17 2
  32   17   18 1
  33   17   43 1
  34   18   19 1
  35   19   20 ar
  36   19   24 ar
  37   20   21 ar
  38   20   44 1
  39   21   22 ar
  40   21   30 1
  41   22   23 ar
  42   22   27 1
  43   23   24 ar
  44   23   45 1
  45   24   46 1
  46   25   26 1
  47   25   29 1
  48   25   47 1
  49   26   27 2
  50   27   28 1
  51   28   29 2
  52   29   48 1

#	End of record

