#	Name: ASD01911840
#	Creating user name:	WinNT
#	Creation time:	15. 06. 2019 19:58

#	Modifying user name:	WinNT
#	Modification time:	15. 06. 2019 19:58

#	Program:	/corina/corina34_cracker 3.40 0067  02.08.2006

@<TRIPOS>MOLECULE
ASD01911840
  36   38    0    0    0
SMALL
NO_CHARGES


@<TRIPOS>ATOM
   1 C1            -1.0602    -0.5025    -2.0833 C.ar    
   2 C2            -1.0559     0.0559    -0.8086 C.ar    
   3 C3            -1.0046     1.4361    -0.6779 C.ar    
   4 N4            -0.9609     2.2115    -1.7432 N.ar    
   5 C5            -0.9636     1.7145    -2.9644 C.ar    
   6 C6            -1.0128     0.3489    -3.1750 C.ar    
   7 O7            -1.1017    -0.7394     0.2924 O.3     
   8 C8            -1.1522    -2.0845     0.1061 C.ar    
   9 C9            -0.0017    -2.7820    -0.2364 C.ar    
  10 C10           -0.0515    -4.1497    -0.4257 C.ar    
  11 C11           -1.2459    -4.8277    -0.2749 C.ar    
  12 C12           -2.4003    -4.1352     0.0677 C.ar    
  13 C13           -2.3512    -2.7618     0.2634 C.ar    
  14 N14           -3.6092    -4.8214     0.2203 N.am    
  15 C15           -4.7716    -4.2172    -0.0962 C.2     
  16 C16           -6.0543    -4.9024     0.1623 C.ar    
  17 C17           -7.2601    -4.2786    -0.1646 C.ar    
  18 C18           -8.4549    -4.9224     0.0781 C.ar    
  19 C19           -8.4612    -6.1866     0.6461 C.ar    
  20 C20           -7.2661    -6.8116     0.9737 C.ar    
  21 C21           -6.0652    -6.1789     0.7292 C.ar    
  22 O22           -4.7644    -3.1082    -0.5944 O.2     
  23 Cl23          -7.2825    -8.3947     1.6858 Cl      
  24 F24           -9.6349    -6.8127     0.8822 F       
  25 H25           -1.0951    -1.5734    -2.2180 H       
  26 H26           -1.0008     1.8799     0.3067 H       
  27 H27           -0.9272     2.3832    -3.8118 H       
  28 H28           -1.0143    -0.0494    -4.1789 H       
  29 H29            0.9333    -2.2548    -0.3553 H       
  30 H30            0.8449    -4.6898    -0.6924 H       
  31 H31           -1.2820    -5.8968    -0.4238 H       
  32 H32           -3.2473    -2.2209     0.5298 H       
  33 H33           -3.6111    -5.7322     0.5538 H       
  34 H34           -7.2568    -3.2932    -0.6066 H       
  35 H35           -9.3877    -4.4404    -0.1745 H       
  36 H36           -5.1354    -6.6657     0.9840 H       
@<TRIPOS>BOND
   1    1    2 ar
   2    1    6 ar
   3    1   25 1
   4    2    3 ar
   5    2    7 1
   6    3    4 ar
   7    3   26 1
   8    4    5 ar
   9    5    6 ar
  10    5   27 1
  11    6   28 1
  12    7    8 1
  13    8    9 ar
  14    8   13 ar
  15    9   10 ar
  16    9   29 1
  17   10   11 ar
  18   10   30 1
  19   11   12 ar
  20   11   31 1
  21   12   13 ar
  22   12   14 1
  23   13   32 1
  24   14   15 am
  25   14   33 1
  26   15   16 1
  27   15   22 2
  28   16   17 ar
  29   16   21 ar
  30   17   18 ar
  31   17   34 1
  32   18   19 ar
  33   18   35 1
  34   19   20 ar
  35   19   24 1
  36   20   21 ar
  37   20   23 1
  38   21   36 1

#	End of record

