#	Name: ASD06170104
#	Creating user name:	WinNT
#	Creation time:	15. 06. 2019 21:05

#	Modifying user name:	WinNT
#	Modification time:	15. 06. 2019 21:05

#	Program:	/corina/corina34_cracker 3.40 0067  02.08.2006

@<TRIPOS>MOLECULE
ASD06170104
  65   69    0    0    0
SMALL
NO_CHARGES


@<TRIPOS>ATOM
   1 N1             0.3836     2.0166    -1.1290 N.pl3   
   2 N2             0.1797     0.8757    -0.3472 N.am    
   3 C3             1.3813     0.4020     0.0432 C.2     
   4 C4             2.3927     1.3036    -0.5310 C.2     
   5 C5             1.7019     2.2693    -1.2369 C.2     
   6 C6             3.8490     1.1978    -0.3825 C.2     
   7 O7             4.5758     2.0168    -0.9134 O.2     
   8 N8             4.3813     0.1937     0.3419 N.am    
   9 C9            -1.0618     0.3190    -0.0234 C.ar    
  10 C10           -1.9876     0.0532    -1.0240 C.ar    
  11 C11           -3.2125    -0.4970    -0.7009 C.ar    
  12 C12           -3.5177    -0.7829     0.6172 C.ar    
  13 C13           -2.5983    -0.5190     1.6159 C.ar    
  14 C14           -1.3693     0.0254     1.2988 C.ar    
  15 O15            1.5880    -0.5780     0.7343 O.2     
  16 C16            5.7643     0.0150     0.3755 C.ar    
  17 C17            6.6029     1.0788     0.0617 C.ar    
  18 C18            7.9726     0.8906     0.0981 C.ar    
  19 C19            8.4607    -0.3655     0.4502 C.ar    
  20 C20            7.5649    -1.3790     0.7504 C.ar    
  21 N21            6.2638    -1.1635     0.7110 N.ar    
  22 O22            9.8001    -0.5945     0.4982 O.3     
  23 N23           11.7261     0.0557     4.0866 N.ar    
  24 C24           10.4248     0.2027     3.9998 C.ar    
  25 C25            9.7420    -0.0074     2.8087 C.ar    
  26 C26           10.4402    -0.3823     1.6741 C.ar    
  27 C27           11.8412    -0.5376     1.7791 C.ar    
  28 C28           12.6160    -0.9154     0.6728 C.ar    
  29 C29           13.9630    -1.0566     0.8057 C.ar    
  30 C30           14.5879    -0.8294     2.0353 C.ar    
  31 C31           13.8550    -0.4580     3.1397 C.ar    
  32 C32           12.4637    -0.3048     3.0297 C.ar    
  33 O33           15.9340    -0.9771     2.1417 O.3     
  34 C34           16.6394    -1.3646     0.9608 C.3     
  35 C35            2.3195     3.4126    -2.0000 C.3     
  36 C36           -0.6790     2.8153    -1.7447 C.3     
  37 C37           -1.0428     3.9792    -0.8207 C.3     
  38 C38           -2.1526     4.8133    -1.4637 C.3     
  39 F39            0.0845     4.7818    -0.6158 F       
  40 H40            3.8027    -0.4047     0.8400 H       
  41 H41           -1.7501     0.2769    -2.0535 H       
  42 H42           -3.9328    -0.7039    -1.4785 H       
  43 H43           -4.4764    -1.2128     0.8672 H       
  44 H44           -2.8400    -0.7428     2.6444 H       
  45 H45           -0.6498     0.2267     2.0787 H       
  46 H46            6.1899     2.0397    -0.2075 H       
  47 H47            8.6480     1.6987    -0.1411 H       
  48 H48            7.9360    -2.3557     1.0239 H       
  49 H49            9.8696     0.4946     4.8790 H       
  50 H50            8.6705     0.1210     2.7681 H       
  51 H51           12.1447    -1.0941    -0.2824 H       
  52 H52           14.5560    -1.3480    -0.0486 H       
  53 H53           14.3474    -0.2848     4.0852 H       
  54 H54           16.2655    -2.3279     0.6139 H       
  55 H55           16.4875    -0.6148     0.1844 H       
  56 H56           17.7033    -1.4466     1.1836 H       
  57 H57            2.4251     4.2744    -1.3410 H       
  58 H58            3.3010     3.1150    -2.3690 H       
  59 H59            1.6792     3.6755    -2.8420 H       
  60 H60           -0.3322     3.2056    -2.7015 H       
  61 H61           -1.5574     2.1899    -1.9044 H       
  62 H62           -1.3897     3.5888     0.1361 H       
  63 H63           -3.0310     4.1879    -1.6234 H       
  64 H64           -2.4118     5.6425    -0.8054 H       
  65 H65           -1.8058     5.2036    -2.4205 H       
@<TRIPOS>BOND
   1    1    2 1
   2    1    5 1
   3    1   36 1
   4    2    3 am
   5    2    9 1
   6    3    4 1
   7    3   15 2
   8    4    5 2
   9    4    6 1
  10    5   35 1
  11    6    7 2
  12    6    8 am
  13    8   16 1
  14    8   40 1
  15    9   10 ar
  16    9   14 ar
  17   10   11 ar
  18   10   41 1
  19   11   12 ar
  20   11   42 1
  21   12   13 ar
  22   12   43 1
  23   13   14 ar
  24   13   44 1
  25   14   45 1
  26   16   17 ar
  27   16   21 ar
  28   17   18 ar
  29   17   46 1
  30   18   19 ar
  31   18   47 1
  32   19   20 ar
  33   19   22 1
  34   20   21 ar
  35   20   48 1
  36   22   26 1
  37   23   24 ar
  38   23   32 ar
  39   24   25 ar
  40   24   49 1
  41   25   26 ar
  42   25   50 1
  43   26   27 ar
  44   27   28 ar
  45   27   32 ar
  46   28   29 ar
  47   28   51 1
  48   29   30 ar
  49   29   52 1
  50   30   31 ar
  51   30   33 1
  52   31   32 ar
  53   31   53 1
  54   33   34 1
  55   34   54 1
  56   34   55 1
  57   34   56 1
  58   35   57 1
  59   35   58 1
  60   35   59 1
  61   36   37 1
  62   36   60 1
  63   36   61 1
  64   37   38 1
  65   37   39 1
  66   37   62 1
  67   38   63 1
  68   38   64 1
  69   38   65 1

#	End of record

