#	Name: ASD09610005
#	Creating user name:	WinNT
#	Creation time:	15. 06. 2019 21:22

#	Modifying user name:	WinNT
#	Modification time:	15. 06. 2019 21:22

#	Program:	/corina/corina34_cracker 3.40 0067  02.08.2006

@<TRIPOS>MOLECULE
ASD09610005
  40   41    0    0    0
SMALL
NO_CHARGES


@<TRIPOS>ATOM
   1 N1             0.7619     4.1108    -2.0016 N.pl3   
   2 N2             0.5477     2.8458    -2.0702 N.2     
   3 C3             1.3588     2.2957    -2.9532 C.2     
   4 C4             2.1596     3.3343    -3.4864 C.2     
   5 C5             1.7530     4.4637    -2.8611 C.2     
   6 C6             1.4199     0.8673    -3.3166 C.2     
   7 O7             2.2175     0.4861    -4.1501 O.2     
   8 O8             0.5912    -0.0147    -2.7243 O.3     
   9 C9             0.0699     4.9981    -1.1661 C.ar    
  10 C10           -1.1969     4.6692    -0.6981 C.ar    
  11 C11           -1.8764     5.5461     0.1258 C.ar    
  12 C12           -1.2965     6.7506     0.4843 C.ar    
  13 C13           -0.0357     7.0800     0.0190 C.ar    
  14 C14            0.6507     6.2045    -0.7999 C.ar    
  15 Cl15          -2.1528     7.8504     1.5191 Cl      
  16 Cl16          -1.9248     3.1589    -1.1486 Cl      
  17 C17            2.2975     5.8521    -3.0777 C.3     
  18 C18            3.0843     5.8925    -4.3893 C.3     
  19 C19            1.1391     6.8492    -3.1469 C.3     
  20 C20            3.2220     6.2241    -1.9167 C.3     
  21 C21            0.7070    -1.4037    -3.1308 C.3     
  22 C22           -0.3067    -2.2482    -2.3561 C.3     
  23 H23            2.9329     3.2443    -4.2349 H       
  24 H24           -2.8607     5.2915     0.4901 H       
  25 H25            0.4141     8.0209     0.2998 H       
  26 H26            1.6366     6.4605    -1.1589 H       
  27 H27            2.4257     5.6274    -5.2163 H       
  28 H28            3.4782     6.8967    -4.5459 H       
  29 H29            3.9096     5.1821    -4.3399 H       
  30 H30            0.2664     6.4274    -2.6483 H       
  31 H31            1.4278     7.7764    -2.6518 H       
  32 H32            0.8979     7.0540    -4.1899 H       
  33 H33            4.2516     5.9816    -2.1800 H       
  34 H34            3.1404     7.2922    -1.7152 H       
  35 H35            2.9327     5.6636    -1.0278 H       
  36 H36            0.5084    -1.4874    -4.1993 H       
  37 H37            1.7148    -1.7613    -2.9195 H       
  38 H38           -0.1081    -2.1646    -1.2876 H       
  39 H39           -1.3144    -1.8906    -2.5674 H       
  40 H40           -0.2197    -3.2909    -2.6613 H       
@<TRIPOS>BOND
   1    1    2 1
   2    1    5 1
   3    1    9 1
   4    2    3 2
   5    3    4 1
   6    3    6 1
   7    4    5 2
   8    4   23 1
   9    5   17 1
  10    6    7 2
  11    6    8 1
  12    8   21 1
  13    9   10 ar
  14    9   14 ar
  15   10   11 ar
  16   10   16 1
  17   11   12 ar
  18   11   24 1
  19   12   13 ar
  20   12   15 1
  21   13   14 ar
  22   13   25 1
  23   14   26 1
  24   17   18 1
  25   17   20 1
  26   17   19 1
  27   18   27 1
  28   18   28 1
  29   18   29 1
  30   19   30 1
  31   19   31 1
  32   19   32 1
  33   20   33 1
  34   20   34 1
  35   20   35 1
  36   21   22 1
  37   21   36 1
  38   21   37 1
  39   22   38 1
  40   22   39 1
  41   22   40 1

#	End of record

