#	Name: ASD03730771
#	Creating user name:	WinNT
#	Creation time:	15. 06. 2019 20:44

#	Modifying user name:	WinNT
#	Modification time:	15. 06. 2019 20:44

#	Program:	/corina/corina34_cracker 3.40 0067  02.08.2006

@<TRIPOS>MOLECULE
ASD03730771
  52   56    0    0    0
SMALL
NO_CHARGES


@<TRIPOS>ATOM
   1 C1            -0.0185     1.5122     0.0104 C.2     
   2 C2             0.0021    -0.0041     0.0020 C.3     
   3 C3             0.7764    -0.4447    -1.2397 C.3     
   4 C4             2.0097     0.3985    -1.4201 C.ar    
   5 C5             3.0345    -0.0864    -2.2188 C.ar    
   6 C6             4.1803     0.6614    -2.4212 C.ar    
   7 C7             4.3068     1.9110    -1.8184 C.ar    
   8 C8             3.2876     2.3918    -1.0168 C.ar    
   9 C9             2.1381     1.6355    -0.8122 C.ar    
  10 O10            1.1720     2.1408     0.0024 O.3     
  11 O11            5.5110     2.4469    -2.1734 O.3     
  12 C12            5.9446     1.6934    -3.3210 C.3     
  13 O13            5.3090     0.4128    -3.1494 O.3     
  14 N14            0.5650    -2.5524    -2.1466 N.am    
  15 C15            1.1571    -1.9049    -1.1213 C.2     
  16 C16           -0.0911    -0.3859    -2.4578 C.ar    
  17 C17           -0.7333     0.6682    -3.0710 C.ar    
  18 C18           -1.4747     0.3775    -4.2113 C.ar    
  19 C19           -1.5616    -0.9091    -4.7028 C.ar    
  20 C20           -0.9185    -1.9739    -4.0914 C.ar    
  21 C21           -0.1700    -1.6955    -2.9465 C.ar    
  22 O22            1.8610    -2.3995    -0.2663 O.2     
  23 O23           -1.0575     2.1289     0.0187 O.2     
  24 C24            0.6868    -3.9927    -2.3851 C.3     
  25 C25           -0.4347    -4.7282    -1.6488 C.3     
  26 C26           -0.3075    -6.2324    -1.8979 C.3     
  27 C27           -1.4290    -6.9679    -1.1616 C.3     
  28 C28           -1.3018    -8.4722    -1.4107 C.3     
  29 C29           -2.4233    -9.2077    -0.6744 C.3     
  30 H30            0.4997    -0.3727     0.8990 H       
  31 H31           -1.0171    -0.3881    -0.0414 H       
  32 H32            2.9369    -1.0549    -2.6866 H       
  33 H33            3.3844     3.3597    -0.5475 H       
  34 H34            5.6059     2.1687    -4.2416 H       
  35 H35            7.0292     1.5856    -3.3210 H       
  36 H36           -0.6642     1.6739    -2.6836 H       
  37 H37           -1.9933     1.1751    -4.7224 H       
  38 H38           -2.1488    -1.0919    -5.5906 H       
  39 H39           -0.9937    -2.9772    -4.4841 H       
  40 H40            0.6111    -4.1916    -3.4541 H       
  41 H41            1.6521    -4.3414    -2.0181 H       
  42 H42           -0.3590    -4.5293    -0.5798 H       
  43 H43           -1.4000    -4.3795    -2.0158 H       
  44 H44           -0.3832    -6.4314    -2.9669 H       
  45 H45            0.6578    -6.5811    -1.5309 H       
  46 H46           -1.3533    -6.7690    -0.0926 H       
  47 H47           -2.3943    -6.6192    -1.5286 H       
  48 H48           -1.3775    -8.6711    -2.4797 H       
  49 H49           -0.3365    -8.8208    -1.0436 H       
  50 H50           -2.3476    -9.0087     0.3947 H       
  51 H51           -3.3886    -8.8590    -1.0414 H       
  52 H52           -2.3327   -10.2793    -0.8518 H       
@<TRIPOS>BOND
   1    1    2 1
   2    1   10 1
   3    1   23 2
   4    2    3 1
   5    2   30 1
   6    2   31 1
   7    3    4 1
   8    3   15 1
   9    3   16 1
  10    4    5 ar
  11    4    9 ar
  12    5    6 ar
  13    5   32 1
  14    6    7 ar
  15    6   13 1
  16    7    8 ar
  17    7   11 1
  18    8    9 ar
  19    8   33 1
  20    9   10 1
  21   11   12 1
  22   12   13 1
  23   12   34 1
  24   12   35 1
  25   14   15 am
  26   14   21 1
  27   14   24 1
  28   15   22 2
  29   16   17 ar
  30   16   21 ar
  31   17   18 ar
  32   17   36 1
  33   18   19 ar
  34   18   37 1
  35   19   20 ar
  36   19   38 1
  37   20   21 ar
  38   20   39 1
  39   24   25 1
  40   24   40 1
  41   24   41 1
  42   25   26 1
  43   25   42 1
  44   25   43 1
  45   26   27 1
  46   26   44 1
  47   26   45 1
  48   27   28 1
  49   27   46 1
  50   27   47 1
  51   28   29 1
  52   28   48 1
  53   28   49 1
  54   29   50 1
  55   29   51 1
  56   29   52 1

#	End of record

