#	Name: ASD07301376
#	Creating user name:	WinNT
#	Creation time:	15. 06. 2019 21:11

#	Modifying user name:	WinNT
#	Modification time:	15. 06. 2019 21:11

#	Program:	/corina/corina34_cracker 3.40 0067  02.08.2006

@<TRIPOS>MOLECULE
ASD07301376
  41   42    0    0    0
SMALL
NO_CHARGES


@<TRIPOS>ATOM
   1 C1             0.0241     1.2352     0.8125 C.2     
   2 C2            -0.0101    -0.2142     1.0639 C.2     
   3 C3             1.2356    -0.8737     1.2243 C.2     
   4 C4             2.3623    -0.1273     1.1352 C.2     
   5 N5             2.2955     1.2058     0.9003 N.pl3   
   6 N6             1.1915     1.8395     0.7496 N.2     
   7 O7            -1.0662    -0.8235     1.1321 O.2     
   8 C8             3.4916     1.9266     0.8182 C.ar    
   9 C9             3.4757     3.2599     0.4278 C.ar    
  10 C10            4.6580     3.9685     0.3483 C.ar    
  11 C11            5.8574     3.3525     0.6567 C.ar    
  12 C12            5.8769     2.0256     1.0451 C.ar    
  13 C13            4.6972     1.3125     1.1323 C.ar    
  14 C14            4.6418     5.4146    -0.0756 C.3     
  15 F15            4.5012     6.2297     1.0527 F       
  16 F16            5.8407     5.7231    -0.7272 F       
  17 F17            3.5684     5.6335    -0.9457 F       
  18 C18           -1.2291     1.9971     0.6278 C.2     
  19 C19           -1.1810     3.3882     0.3870 C.2     
  20 C20           -2.3207     4.0705     0.1347 C.2     
  21 C21           -3.6149     3.3261    -0.0698 C.3     
  22 O22           -2.3035     1.4253     0.6832 O.2     
  23 N23           -2.2990     5.4338     0.0652 N.pl3   
  24 C24           -1.0409     6.1575     0.2641 C.3     
  25 C25           -3.5339     6.1731    -0.2081 C.3     
  26 H26            1.2839    -1.9363     1.4117 H       
  27 H27            3.3260    -0.6003     1.2532 H       
  28 H28            2.5395     3.7414     0.1865 H       
  29 H29            6.7808     3.9090     0.5937 H       
  30 H30            6.8152     1.5475     1.2849 H       
  31 H31            4.7127     0.2774     1.4401 H       
  32 H32           -0.2338     3.9068     0.4045 H       
  33 H33           -4.0687     3.1134     0.8982 H       
  34 H34           -4.2952     3.9365    -0.6637 H       
  35 H35           -3.4170     2.3899    -0.5918 H       
  36 H36           -0.5382     6.2825    -0.6950 H       
  37 H37           -1.2491     7.1365     0.6955 H       
  38 H38           -0.3992     5.5918     0.9396 H       
  39 H39           -4.2648     5.9607     0.5722 H       
  40 H40           -3.3212     7.2420    -0.2256 H       
  41 H41           -3.9346     5.8665    -1.1744 H       
@<TRIPOS>BOND
   1    1    2 1
   2    1    6 2
   3    1   18 1
   4    2    3 1
   5    2    7 2
   6    3    4 2
   7    3   26 1
   8    4    5 1
   9    4   27 1
  10    5    6 1
  11    5    8 1
  12    8    9 ar
  13    8   13 ar
  14    9   10 ar
  15    9   28 1
  16   10   11 ar
  17   10   14 1
  18   11   12 ar
  19   11   29 1
  20   12   13 ar
  21   12   30 1
  22   13   31 1
  23   14   15 1
  24   14   16 1
  25   14   17 1
  26   18   19 1
  27   18   22 2
  28   19   20 2
  29   19   32 1
  30   20   21 1
  31   20   23 1
  32   21   33 1
  33   21   34 1
  34   21   35 1
  35   23   24 1
  36   23   25 1
  37   24   36 1
  38   24   37 1
  39   24   38 1
  40   25   39 1
  41   25   40 1
  42   25   41 1

#	End of record

