#	Name: ASD03092397
#	Creating user name:	WinNT
#	Creation time:	15. 06. 2019 20:32

#	Modifying user name:	WinNT
#	Modification time:	15. 06. 2019 20:32

#	Program:	/corina/corina34_cracker 3.40 0067  02.08.2006

@<TRIPOS>MOLECULE
ASD03092397
  55   57    0    0    0
SMALL
NO_CHARGES


@<TRIPOS>ATOM
   1 C1             0.3377     2.0152     0.1444 C.2     
   2 C2             0.5539     0.5260     0.2241 C.3     
   3 C3             2.0546     0.2276     0.2206 C.3     
   4 C4             2.6908     0.7976     1.4900 C.3     
   5 O5             1.2900     2.7643     0.0901 O.2     
   6 N6            -0.9141     2.5144     0.1278 N.am    
   7 C7             2.2736    -1.2859     0.1758 C.3     
   8 C8            -1.1244     3.9622     0.0503 C.3     
   9 S9            -4.9835     4.7562    -0.6387 S.3     
  10 C10           -4.5799     4.6083     1.0157 C.2     
  11 N11           -3.3134     4.3515     1.1494 N.2     
  12 C12           -2.6026     4.2556     0.0469 C.2     
  13 C13           -3.3091     4.4424    -1.0876 C.2     
  14 C14           -2.5485     5.3138    -4.6606 C.ar    
  15 C15           -3.0708     5.4006    -3.3883 C.ar    
  16 C16           -2.7735     4.3920    -2.4620 C.ar    
  17 C17           -1.9532     3.3345    -2.8772 C.ar    
  18 C18           -1.4749     3.3281    -4.1696 C.ar    
  19 N19           -1.7794     4.2994    -5.0103 N.ar    
  20 N20           -5.4737     4.7431     2.0624 N.3     
  21 C21           -6.8269     5.0319     1.5657 C.3     
  22 C22           -7.7695     5.2322     2.7555 C.3     
  23 O23           -7.7344     4.0685     3.5861 O.3     
  24 C24           -6.4316     3.7583     4.0879 C.3     
  25 C25           -5.4755     3.5431     2.9116 C.3     
  26 C26           -6.4991     2.4835     4.9312 C.3     
  27 C27           -9.1951     5.4536     2.2462 C.3     
  28 H28            0.1095     0.1429     1.1427 H       
  29 H29            0.0858     0.0444    -0.6344 H       
  30 H30            2.5144     0.6874    -0.6542 H       
  31 H31            2.2310     0.3378     2.3648 H       
  32 H32            3.7599     0.5850     1.4876 H       
  33 H33            2.5348     1.8759     1.5220 H       
  34 H34           -1.6758     1.9151     0.1671 H       
  35 H35            1.8203    -1.6920    -0.7286 H       
  36 H36            3.3426    -1.4985     0.1733 H       
  37 H37            1.8137    -1.7457     1.0506 H       
  38 H38           -0.6604     4.4433     0.9113 H       
  39 H39           -0.6757     4.3460    -0.8659 H       
  40 H40           -2.7754     6.0838    -5.3831 H       
  41 H41           -3.6989     6.2336    -3.1092 H       
  42 H42           -1.6994     2.5369    -2.1947 H       
  43 H43           -0.8419     2.5174    -4.4991 H       
  44 H44           -6.8069     5.9383     0.9607 H       
  45 H45           -7.1781     4.1967     0.9597 H       
  46 H46           -7.4491     6.1003     3.3315 H       
  47 H47           -6.0723     4.5836     4.7026 H       
  48 H48           -5.8051     2.6841     2.3272 H       
  49 H49           -4.4690     3.3627     3.2890 H       
  50 H50           -6.8566     1.6586     4.3149 H       
  51 H51           -5.5059     2.2476     5.3133 H       
  52 H52           -7.1829     2.6360     5.7663 H       
  53 H53           -9.5150     4.5841     1.6720 H       
  54 H54           -9.8656     5.5961     3.0937 H       
  55 H55           -9.2204     6.3384     1.6101 H       
@<TRIPOS>BOND
   1    1    2 1
   2    1    5 2
   3    1    6 am
   4    2    3 1
   5    2   28 1
   6    2   29 1
   7    3    4 1
   8    3    7 1
   9    3   30 1
  10    4   31 1
  11    4   32 1
  12    4   33 1
  13    6    8 1
  14    6   34 1
  15    7   35 1
  16    7   36 1
  17    7   37 1
  18    8   12 1
  19    8   38 1
  20    8   39 1
  21    9   10 1
  22    9   13 1
  23   10   11 2
  24   10   20 1
  25   11   12 1
  26   12   13 2
  27   13   16 1
  28   14   15 ar
  29   14   19 ar
  30   14   40 1
  31   15   16 ar
  32   15   41 1
  33   16   17 ar
  34   17   18 ar
  35   17   42 1
  36   18   19 ar
  37   18   43 1
  38   20   21 1
  39   20   25 1
  40   21   22 1
  41   21   44 1
  42   21   45 1
  43   22   23 1
  44   22   27 1
  45   22   46 1
  46   23   24 1
  47   24   25 1
  48   24   26 1
  49   24   47 1
  50   25   48 1
  51   25   49 1
  52   26   50 1
  53   26   51 1
  54   26   52 1
  55   27   53 1
  56   27   54 1
  57   27   55 1

#	End of record

