#	Name: ASD02030641
#	Creating user name:	WinNT
#	Creation time:	15. 06. 2019 20:15

#	Modifying user name:	WinNT
#	Modification time:	15. 06. 2019 20:15

#	Program:	/corina/corina34_cracker 3.40 0067  02.08.2006

@<TRIPOS>MOLECULE
ASD02030641
  68   72    0    0    0
SMALL
NO_CHARGES


@<TRIPOS>ATOM
   1 C1            -0.2551     1.5029    -0.0052 C.ar    
   2 C2            -0.1562     0.1280    -0.0200 C.ar    
   3 C3             1.0944    -0.4712     0.0299 C.ar    
   4 C4             2.2301     0.3168     0.0998 C.ar    
   5 C5             2.1279     1.7018     0.1211 C.ar    
   6 C6             0.8855     2.2927     0.0595 C.ar    
   7 C7             0.7048     3.7900     0.0449 C.3     
   8 C8             3.4047     2.4935     0.2271 C.3     
   9 C9             3.1943     3.9309    -0.2463 C.3     
  10 N10            1.9712     4.4440     0.3909 N.am    
  11 C11            0.2661     4.2363    -1.3513 C.3     
  12 O12            1.2065     3.7659    -2.3190 O.3     
  13 C13            0.9624     4.0785    -3.6197 C.ar    
  14 C14            2.0135     5.4744     1.2587 C.2     
  15 O15            3.0832     5.9494     1.5864 O.2     
  16 C16            0.7586     6.0268     1.8120 C.ar    
  17 C17            0.4653     4.7145    -6.2677 C.ar    
  18 C18           -0.4039     5.1448    -5.2762 C.ar    
  19 C19           -0.1560     4.8272    -3.9549 C.ar    
  20 C20            1.8349     3.6536    -4.6106 C.ar    
  21 C21            1.5870     3.9711    -5.9319 C.ar    
  22 C22            0.7202     6.5002     3.1239 C.ar    
  23 C23           -0.3910     6.0821     1.0220 C.ar    
  24 C24           -1.5593     6.5984     1.5430 C.ar    
  25 C25           -1.5945     7.0615     2.8462 C.ar    
  26 C26           -0.4562     7.0153     3.6347 C.ar    
  27 O27            0.2212     5.0271    -7.5684 O.3     
  28 C28            1.1580     4.5511    -8.5368 C.3     
  29 F29           -0.4963     7.4744     4.9047 F       
  30 C30            0.7200     4.9983    -9.9329 C.3     
  31 O31            1.2035    -1.8256     0.0106 O.3     
  32 C32           -0.0128    -2.5750     0.0418 C.3     
  33 C33            0.2084    -3.9651    -0.5800 C.3     
  34 C34           -0.1034    -4.9964     0.5241 C.3     
  35 C35           -1.0447    -4.2409     1.4947 C.3     
  36 C36           -0.4513    -2.8102     1.5020 C.3     
  37 H37           -1.2278     1.9701    -0.0487 H       
  38 H38           -1.0476    -0.4798    -0.0699 H       
  39 H39            3.2037    -0.1492     0.1385 H       
  40 H40           -0.0584     4.0703     0.7710 H       
  41 H41            3.7355     2.5030     1.2656 H       
  42 H42            4.1710     2.0220    -0.3882 H       
  43 H43            4.0473     4.5436     0.0454 H       
  44 H44            3.0798     3.9491    -1.3301 H       
  45 H45           -0.7187     3.8245    -1.5716 H       
  46 H46            0.2212     5.3247    -1.3874 H       
  47 H47           -1.2774     5.7236    -5.5377 H       
  48 H48           -0.8332     5.1616    -3.1829 H       
  49 H49            2.7084     3.0747    -4.3491 H       
  50 H50            2.2638     3.6360    -6.7039 H       
  51 H51            1.6074     6.4640     3.7388 H       
  52 H52           -0.3657     5.7215     0.0043 H       
  53 H53           -2.4487     6.6416     0.9319 H       
  54 H54           -2.5119     7.4647     3.2490 H       
  55 H55            2.1452     4.9582    -8.3181 H       
  56 H56            1.1975     3.4625    -8.4997 H       
  57 H57            1.4345     4.6352   -10.6716 H       
  58 H58           -0.2672     4.5912   -10.1517 H       
  59 H59            0.6805     6.0869    -9.9701 H       
  60 H60           -0.7931    -2.0426    -0.5020 H       
  61 H61           -0.4652    -4.1076    -1.4250 H       
  62 H62            1.2435    -4.0680    -0.9055 H       
  63 H63           -0.6081    -5.8657     0.1025 H       
  64 H64            0.8113    -5.2960     1.0356 H       
  65 H65           -2.0663    -4.2334     1.1147 H       
  66 H66           -1.0055    -4.6804     2.4914 H       
  67 H67            0.4072    -2.7567     2.1715 H       
  68 H68           -1.2099    -2.0840     1.7942 H       
@<TRIPOS>BOND
   1    1    2 ar
   2    1    6 ar
   3    1   37 1
   4    2    3 ar
   5    2   38 1
   6    3    4 ar
   7    3   31 1
   8    4    5 ar
   9    4   39 1
  10    5    6 ar
  11    5    8 1
  12    6    7 1
  13    7   10 1
  14    7   11 1
  15    7   40 1
  16    8    9 1
  17    8   41 1
  18    8   42 1
  19    9   10 1
  20    9   43 1
  21    9   44 1
  22   10   14 am
  23   11   12 1
  24   11   45 1
  25   11   46 1
  26   12   13 1
  27   13   20 ar
  28   13   19 ar
  29   14   15 2
  30   14   16 1
  31   16   23 ar
  32   16   22 ar
  33   17   18 ar
  34   17   21 ar
  35   17   27 1
  36   18   19 ar
  37   18   47 1
  38   19   48 1
  39   20   21 ar
  40   20   49 1
  41   21   50 1
  42   22   26 ar
  43   22   51 1
  44   23   24 ar
  45   23   52 1
  46   24   25 ar
  47   24   53 1
  48   25   26 ar
  49   25   54 1
  50   26   29 1
  51   27   28 1
  52   28   30 1
  53   28   55 1
  54   28   56 1
  55   30   57 1
  56   30   58 1
  57   30   59 1
  58   31   32 1
  59   32   33 1
  60   32   36 1
  61   32   60 1
  62   33   34 1
  63   33   61 1
  64   33   62 1
  65   34   35 1
  66   34   63 1
  67   34   64 1
  68   35   36 1
  69   35   65 1
  70   35   66 1
  71   36   67 1
  72   36   68 1

#	End of record

