#	Name: ASD03091608
#	Creating user name:	WinNT
#	Creation time:	15. 06. 2019 20:31

#	Modifying user name:	WinNT
#	Modification time:	15. 06. 2019 20:31

#	Program:	/corina/corina34_cracker 3.40 0067  02.08.2006

@<TRIPOS>MOLECULE
ASD03091608
  19   20    0    0    0
SMALL
NO_CHARGES


@<TRIPOS>ATOM
   1 C1            -0.0161     1.3340     0.0094 C.2     
   2 C2             0.0021    -0.0041     0.0020 C.2     
   3 C3             1.2751    -0.5931    -0.0133 C.ar    
   4 C4             2.3068     0.3566    -0.0181 C.ar    
   5 S5             1.6170     1.9760    -0.0028 S.3     
   6 C6             3.6386    -0.0598    -0.0330 C.ar    
   7 C7             3.9441    -1.4149    -0.0432 C.ar    
   8 C8             2.9106    -2.3638    -0.0384 C.ar    
   9 C9             1.6135    -1.9696    -0.0239 C.ar    
  10 C10           -1.2360     2.1532     0.0198 C.2     
  11 O11           -2.3275     1.6181     0.0223 O.2     
  12 O12           -1.1447     3.4984     0.0267 O.3     
  13 C13            5.3107    -1.8423    -0.0590 C.1     
  14 N14            6.3948    -2.1814    -0.0716 N.1     
  15 H15           -0.9039    -0.5919     0.0079 H       
  16 H16            4.4327     0.6722    -0.0370 H       
  17 H17            3.1503    -3.4169    -0.0467 H       
  18 H18            0.8295    -2.7123    -0.0204 H       
  19 H19           -1.9746     3.9948     0.0335 H       
@<TRIPOS>BOND
   1    1    2 2
   2    1    5 1
   3    1   10 1
   4    2    3 1
   5    2   15 1
   6    3    4 ar
   7    3    9 ar
   8    4    5 1
   9    4    6 ar
  10    6    7 ar
  11    6   16 1
  12    7    8 ar
  13    7   13 1
  14    8    9 ar
  15    8   17 1
  16    9   18 1
  17   10   11 2
  18   10   12 1
  19   12   19 1
  20   13   14 3

#	End of record

