#	Name: ASD01811540
#	Creating user name:	WinNT
#	Creation time:	15. 06. 2019 19:26

#	Modifying user name:	WinNT
#	Modification time:	15. 06. 2019 19:26

#	Program:	/corina/corina34_cracker 3.40 0067  02.08.2006

@<TRIPOS>MOLECULE
ASD01811540
  42   44    0    0    0
SMALL
NO_CHARGES


@<TRIPOS>ATOM
   1 C1            -0.1146     1.4612     0.2283 C.2     
   2 C2            -0.0453    -0.0098     0.1087 C.ar    
   3 C3             1.1207    -0.6201    -0.3609 C.ar    
   4 C4             1.1868    -1.9943    -0.4727 C.ar    
   5 C5             0.1027    -2.7750    -0.1218 C.ar    
   6 C6            -1.0687    -2.1782     0.3483 C.ar    
   7 C7            -1.1407    -0.7924     0.4692 C.ar    
   8 O8             0.8692     2.1361     0.0003 O.2     
   9 O9            -1.2704     2.0542     0.5850 O.3     
  10 C10            0.1843    -4.2745    -0.2473 C.3     
  11 C11            2.3083     0.2237    -0.7465 C.3     
  12 C12           -2.2288    -3.0162     0.7226 C.2     
  13 N13           -3.4770    -2.5574     1.0416 N.pl3   
  14 C14           -4.2375    -3.6484     1.3188 C.2     
  15 C15           -3.4470    -4.7395     1.1671 C.2     
  16 N16           -2.2364    -4.3317     0.7996 N.2     
  17 C17           -5.6871    -3.7252     1.7228 C.3     
  18 C18           -3.9472    -6.1457     1.3961 C.3     
  19 C19           -5.2677    -6.0515     2.1742 C.3     
  20 O20           -6.1210    -5.0826     1.5595 O.3     
  21 C21           -4.1856    -6.8364     0.0519 C.3     
  22 C22           -2.9205    -6.9350     2.2109 C.3     
  23 H23            2.0901    -2.4612    -0.8364 H       
  24 H24           -2.0429    -0.3262     0.8369 H       
  25 H25           -1.2669     3.0190     0.6501 H       
  26 H26            0.4452    -4.7063     0.7189 H       
  27 H27           -0.7805    -4.6651    -0.5712 H       
  28 H28            0.9471    -4.5369    -0.9804 H       
  29 H29            2.8824     0.4724     0.1461 H       
  30 H30            2.9386    -0.3319    -1.4408 H       
  31 H31            1.9628     1.1408    -1.2235 H       
  32 H32           -3.7641    -1.6312     1.0654 H       
  33 H33           -5.7953    -3.4266     2.7656 H       
  34 H34           -6.2820    -3.0691     1.0874 H       
  35 H35           -5.7610    -7.0235     2.1705 H       
  36 H36           -5.0624    -5.7535     3.2023 H       
  37 H37           -3.2515    -6.8731    -0.5085 H       
  38 H38           -4.5464    -7.8506     0.2235 H       
  39 H39           -4.9289    -6.2778    -0.5169 H       
  40 H40           -2.7667    -6.4461     3.1729 H       
  41 H41           -3.2869    -7.9487     2.3728 H       
  42 H42           -1.9765    -6.9724     1.6673 H       
@<TRIPOS>BOND
   1    1    2 1
   2    1    8 2
   3    1    9 1
   4    2    3 ar
   5    2    7 ar
   6    3    4 ar
   7    3   11 1
   8    4    5 ar
   9    4   23 1
  10    5    6 ar
  11    5   10 1
  12    6    7 ar
  13    6   12 1
  14    7   24 1
  15    9   25 1
  16   10   26 1
  17   10   27 1
  18   10   28 1
  19   11   29 1
  20   11   30 1
  21   11   31 1
  22   12   13 1
  23   12   16 2
  24   13   14 1
  25   13   32 1
  26   14   15 2
  27   14   17 1
  28   15   16 1
  29   15   18 1
  30   17   20 1
  31   17   33 1
  32   17   34 1
  33   18   19 1
  34   18   21 1
  35   18   22 1
  36   19   20 1
  37   19   35 1
  38   19   36 1
  39   21   37 1
  40   21   38 1
  41   21   39 1
  42   22   40 1
  43   22   41 1
  44   22   42 1

#	End of record

