#	Name: ASD05380303
#	Creating user name:	WinNT
#	Creation time:	15. 06. 2019 20:59

#	Modifying user name:	WinNT
#	Modification time:	15. 06. 2019 20:59

#	Program:	/corina/corina34_cracker 3.40 0067  02.08.2006

@<TRIPOS>MOLECULE
ASD05380303
  35   36    0    0    0
SMALL
NO_CHARGES


@<TRIPOS>ATOM
   1 C1            -0.1706     1.5052    -0.3913 C.ar    
   2 C2            -1.3717     2.0292     0.1005 C.ar    
   3 N3            -2.3238     1.1992     0.4820 N.ar    
   4 C4            -2.1535    -0.1147     0.4040 C.ar    
   5 N5            -1.0296    -0.6492    -0.0560 N.ar    
   6 C6            -0.0331     0.1146    -0.4624 C.ar    
   7 B7             0.9903     2.4538    -0.8575 Du      
   8 O8             0.9531     3.8820    -0.9894 O.3     
   9 O9             2.3227     2.0830    -1.2390 O.3     
  10 C10            2.6311     2.9339    -2.3631 C.3     
  11 C11            1.6997     4.1572    -2.1934 C.3     
  12 C12            4.0966     3.3707    -2.3149 C.3     
  13 C13            2.3322     2.2100    -3.6774 C.3     
  14 C14            0.7557     4.2788    -3.3913 C.3     
  15 C15            2.5236     5.4360    -2.0304 C.3     
  16 N16           -3.1731    -0.9477     0.8129 N.pl3   
  17 C17           -1.5744     3.5196     0.1934 C.3     
  18 F18           -1.5546     4.0738    -1.0910 F       
  19 F19           -2.8080     3.7857     0.7971 F       
  20 F20           -0.5487     4.0828     0.9602 F       
  21 H21            0.8788    -0.3274    -0.8360 H       
  22 H22            4.7396     2.4925    -2.3748 H       
  23 H23            4.3063     4.0325    -3.1552 H       
  24 H24            4.2880     3.8981    -1.3804 H       
  25 H25            1.2816     1.9204    -3.7020 H       
  26 H26            2.5456     2.8744    -4.5148 H       
  27 H27            2.9563     1.3195    -3.7519 H       
  28 H28            0.1476     3.3774    -3.4677 H       
  29 H29            0.1071     5.1443    -3.2564 H       
  30 H30            1.3400     4.4012    -4.3033 H       
  31 H31            3.1451     5.5828    -2.9138 H       
  32 H32            1.8534     6.2875    -1.9121 H       
  33 H33            3.1593     5.3489    -1.1493 H       
  34 H34           -4.0004    -0.5713     1.1518 H       
  35 H35           -3.0631    -1.9100     0.7618 H       
@<TRIPOS>BOND
   1    1    2 ar
   2    1    7 1
   3    1    6 ar
   4    2    3 ar
   5    2   17 1
   6    3    4 ar
   7    4    5 ar
   8    4   16 1
   9    5    6 ar
  10    6   21 1
  11    7    8 1
  12    7    9 1
  13    8   11 1
  14    9   10 1
  15   10   11 1
  16   10   12 1
  17   10   13 1
  18   11   14 1
  19   11   15 1
  20   12   22 1
  21   12   23 1
  22   12   24 1
  23   13   25 1
  24   13   26 1
  25   13   27 1
  26   14   28 1
  27   14   29 1
  28   14   30 1
  29   15   31 1
  30   15   32 1
  31   15   33 1
  32   16   34 1
  33   16   35 1
  34   17   18 1
  35   17   19 1
  36   17   20 1

#	End of record

