#	Name: ASD05143287
#	Creating user name:	WinNT
#	Creation time:	15. 06. 2019 20:57

#	Modifying user name:	WinNT
#	Modification time:	15. 06. 2019 20:57

#	Program:	/corina/corina34_cracker 3.40 0067  02.08.2006

@<TRIPOS>MOLECULE
ASD05143287
  48   50    0    0    0
SMALL
NO_CHARGES


@<TRIPOS>ATOM
   1 C1             0.3381     1.2338     0.2622 C.2     
   2 N2             0.3394    -0.0324    -0.1040 N.2     
   3 S3            -1.2954    -0.4867    -0.1955 S.3     
   4 C4            -1.8992     1.0589     0.2662 C.2     
   5 N5            -0.8342     1.8045     0.4612 N.2     
   6 N6            -3.2228     1.4342     0.4070 N.pl3   
   7 C7            -3.5408     2.7059     0.8922 C.ar    
   8 C8            -4.8600     3.0298     1.1842 C.ar    
   9 C9            -5.1706     4.2869     1.6637 C.ar    
  10 C10           -4.1703     5.2230     1.8534 C.ar    
  11 C11           -2.8565     4.9039     1.5638 C.ar    
  12 C12           -2.5381     3.6466     1.0888 C.ar    
  13 C13            1.4338    -0.8202    -0.3589 C.ar    
  14 C14            1.6219    -2.0076     0.3505 C.ar    
  15 C15            2.3589    -0.4391    -1.3322 C.ar    
  16 C16            3.4570    -1.2337    -1.5857 C.ar    
  17 C17            3.6429    -2.4115    -0.8746 C.ar    
  18 C18            2.7226    -2.7965     0.0910 C.ar    
  19 C19            1.6021     1.9836     0.4488 C.ar    
  20 C20            1.6541     3.3488     0.1689 C.ar    
  21 C21            2.7433     1.3281     0.9103 C.ar    
  22 C22            3.9177     2.0319     1.0820 C.ar    
  23 C23            3.9646     3.3849     0.7973 C.ar    
  24 C24            2.8343     4.0418     0.3446 C.ar    
  25 C25           -5.9506     2.0106     0.9774 C.3     
  26 O26            4.7264    -3.1922    -1.1277 O.3     
  27 C27            4.8564    -4.3903    -0.3598 C.3     
  28 H28           -3.9305     0.8149     0.1692 H       
  29 H29           -6.1958     4.5395     1.8906 H       
  30 H30           -4.4160     6.2056     2.2283 H       
  31 H31           -2.0778     5.6373     1.7130 H       
  32 H32           -1.5117     3.3980     0.8628 H       
  33 H33            0.9064    -2.3078     1.1017 H       
  34 H34            2.2146     0.4766    -1.8863 H       
  35 H35            4.1732    -0.9396    -2.3386 H       
  36 H36            2.8709    -3.7135     0.6420 H       
  37 H37            0.7725     3.8626    -0.1849 H       
  38 H38            2.7078     0.2720     1.1333 H       
  39 H39            4.8020     1.5255     1.4398 H       
  40 H40            4.8860     3.9315     0.9336 H       
  41 H41            2.8770     5.0981     0.1239 H       
  42 H42           -6.0828     1.4296     1.8901 H       
  43 H43           -6.8826     2.5203     0.7329 H       
  44 H44           -5.6753     1.3448     0.1595 H       
  45 H45            5.7613    -4.9183    -0.6607 H       
  46 H46            4.9179    -4.1383     0.6990 H       
  47 H47            3.9894    -5.0280    -0.5318 H       
  48 Br48          10.7613    11.2056     7.2283 Br      
@<TRIPOS>BOND
   1    1    2 2
   2    1   19 1
   3    1    5 1
   4    2    3 1
   5    2   13 1
   6    3    4 1
   7    4    5 2
   8    4    6 1
   9    6    7 1
  10    6   28 1
  11    7    8 ar
  12    7   12 ar
  13    8    9 ar
  14    8   25 1
  15    9   10 ar
  16    9   29 1
  17   10   11 ar
  18   10   30 1
  19   11   12 ar
  20   11   31 1
  21   12   32 1
  22   13   14 ar
  23   13   15 ar
  24   14   18 ar
  25   14   33 1
  26   15   16 ar
  27   15   34 1
  28   16   17 ar
  29   16   35 1
  30   17   18 ar
  31   17   26 1
  32   18   36 1
  33   19   20 ar
  34   19   21 ar
  35   20   24 ar
  36   20   37 1
  37   21   22 ar
  38   21   38 1
  39   22   23 ar
  40   22   39 1
  41   23   24 ar
  42   23   40 1
  43   24   41 1
  44   25   42 1
  45   25   43 1
  46   25   44 1
  47   26   27 1
  48   27   45 1
  49   27   46 1
  50   27   47 1

#	End of record

