#	Name: ASD01150448
#	Creating user name:	WinNT
#	Creation time:	15. 06. 2019 19:04

#	Modifying user name:	WinNT
#	Modification time:	15. 06. 2019 19:04

#	Program:	/corina/corina34_cracker 3.40 0067  02.08.2006

@<TRIPOS>MOLECULE
ASD01150448
  49   51    0    0    0
SMALL
NO_CHARGES


@<TRIPOS>ATOM
   1 C1             0.4933     1.3919    -0.9465 C.ar    
   2 C2             0.4639     0.0109    -0.9224 C.ar    
   3 C3             1.9479     0.0102     0.9677 C.ar    
   4 C4             1.9789     1.3967     0.9445 C.ar    
   5 C5             1.2508     2.0887    -0.0133 C.ar    
   6 N6             1.2801     3.4880    -0.0393 N.am    
   7 C7             0.1264     4.1736    -0.1219 C.2     
   8 N8             0.1176     5.5193    -0.1491 N.am    
   9 C9             1.2789     6.2039    -0.0937 C.2     
  10 C10            2.5443     5.4601    -0.0033 C.2     
  11 N11            2.5098     4.1538     0.0267 N.2     
  12 O12            1.2793     7.4207    -0.1187 O.2     
  13 C13           -1.1539     6.2413    -0.2394 C.3     
  14 O14           -0.9269     3.5677    -0.1732 O.2     
  15 C15           -1.6747     6.5170     1.1476 C.ar    
  16 C16           -1.3225     7.6851     1.7971 C.ar    
  17 C17           -1.7986     7.9415     3.0692 C.ar    
  18 C18           -2.6305     7.0260     3.6947 C.ar    
  19 C19           -2.9838     5.8521     3.0406 C.ar    
  20 C20           -2.5087     5.6033     1.7660 C.ar    
  21 O21            3.7301     6.1204     0.0540 O.3     
  22 C22            4.9130     5.3233     0.1405 C.3     
  23 O23           -3.0995     7.2761     4.9461 O.3     
  24 C24           -2.6947     8.5026     5.5576 C.3     
  25 F25           -3.7940     4.9573     3.6472 F       
  26 C26            1.1879    -0.6824     0.0311 C.ar    
  27 F27            1.1564    -2.0329     0.0527 F       
  28 N28            2.6816    -0.6914     1.9324 N.am    
  29 C29            2.9446    -0.1216     3.1251 C.2     
  30 C30            3.6402    -0.9140     4.2018 C.3     
  31 O31            2.6215     1.0291     3.3319 O.2     
  32 H32           -0.0696     1.9303    -1.6946 H       
  33 H33           -0.1257    -0.5285    -1.6489 H       
  34 H34            2.5683     1.9368     1.6707 H       
  35 H35           -0.9998     7.1844    -0.7638 H       
  36 H36           -1.8774     5.6359    -0.7855 H       
  37 H37           -0.6740     8.3984     1.3101 H       
  38 H38           -1.5223     8.8545     3.5756 H       
  39 H39           -2.7827     4.6915     1.2562 H       
  40 H40            4.9800     4.6764    -0.7342 H       
  41 H41            5.7871     5.9733     0.1795 H       
  42 H42            4.8742     4.7122     1.0423 H       
  43 H43           -1.6082     8.5251     5.6421 H       
  44 H44           -3.0291     9.3409     4.9465 H       
  45 H45           -3.1380     8.5771     6.5506 H       
  46 H46            3.0005    -1.5875     1.7421 H       
  47 H47            4.7185    -0.7858     4.1080 H       
  48 H48            3.3159    -0.5600     5.1804 H       
  49 H49            3.3892    -1.9694     4.0957 H       
@<TRIPOS>BOND
   1    1    2 ar
   2    1    5 ar
   3    1   32 1
   4    2   26 ar
   5    2   33 1
   6    3    4 ar
   7    3   28 1
   8    3   26 ar
   9    4    5 ar
  10    4   34 1
  11    5    6 1
  12    6    7 am
  13    6   11 1
  14    7    8 am
  15    7   14 2
  16    8    9 am
  17    8   13 1
  18    9   10 1
  19    9   12 2
  20   10   11 2
  21   10   21 1
  22   13   15 1
  23   13   35 1
  24   13   36 1
  25   15   16 ar
  26   15   20 ar
  27   16   17 ar
  28   16   37 1
  29   17   18 ar
  30   17   38 1
  31   18   19 ar
  32   18   23 1
  33   19   20 ar
  34   19   25 1
  35   20   39 1
  36   21   22 1
  37   22   40 1
  38   22   41 1
  39   22   42 1
  40   23   24 1
  41   24   43 1
  42   24   44 1
  43   24   45 1
  44   26   27 1
  45   28   29 am
  46   28   46 1
  47   29   30 1
  48   29   31 2
  49   30   47 1
  50   30   48 1
  51   30   49 1

#	End of record

