#	Name: ASD05380304
#	Creating user name:	WinNT
#	Creation time:	15. 06. 2019 20:59

#	Modifying user name:	WinNT
#	Modification time:	15. 06. 2019 20:59

#	Program:	/corina/corina34_cracker 3.40 0067  02.08.2006

@<TRIPOS>MOLECULE
ASD05380304
  31   32    0    0    0
SMALL
NO_CHARGES


@<TRIPOS>ATOM
   1 C1            -0.0167     1.3784     0.0096 C.ar    
   2 C2             0.0021    -0.0041     0.0020 C.ar    
   3 C3             1.1698     2.0883     0.0021 C.ar    
   4 C4             2.3773     1.4175    -0.0130 C.ar    
   5 C5             2.3989     0.0304    -0.0206 C.ar    
   6 C6             1.2070    -0.6796    -0.0126 C.ar    
   7 C7            -1.3326     2.1128     0.0198 C.3     
   8 O8            -1.2208     3.3507     0.7801 O.3     
   9 C9            -1.7015     2.5800    -1.4014 C.3     
  10 N10           -1.7577     4.0453    -1.2850 N.am    
  11 C11           -1.4736     4.3911    -0.0219 C.2     
  12 O12           -1.4488     5.5443     0.3603 O.2     
  13 C13           -0.6222     2.1614    -2.4019 C.3     
  14 C14           -1.0707     2.5264    -3.8184 C.3     
  15 O15            3.5855    -0.6319    -0.0360 O.3     
  16 C16            3.5315    -2.0599    -0.0431 C.3     
  17 H17           -0.9260    -0.5563     0.0079 H       
  18 H18            1.1525     3.1682     0.0077 H       
  19 H19            3.3039     1.9724    -0.0192 H       
  20 H20            1.2211    -1.7595    -0.0182 H       
  21 H21           -2.1187     1.4806     0.4326 H       
  22 H22           -2.6726     2.1818    -1.6954 H       
  23 H23           -1.9661     4.6608    -2.0051 H       
  24 H24            0.3083     2.6798    -2.1705 H       
  25 H25           -0.4643     1.0849    -2.3368 H       
  26 H26           -2.0012     2.0081    -4.0497 H       
  27 H27           -1.2286     3.6029    -3.8835 H       
  28 H28           -0.3018     2.2282    -4.5311 H       
  29 H29            3.0131    -2.4083     0.8503 H       
  30 H30            2.9955    -2.3988    -0.9296 H       
  31 H31            4.5446    -2.4617    -0.0553 H       
@<TRIPOS>BOND
   1    1    2 ar
   2    1    3 ar
   3    1    7 1
   4    2    6 ar
   5    2   17 1
   6    3    4 ar
   7    3   18 1
   8    4    5 ar
   9    4   19 1
  10    5    6 ar
  11    5   15 1
  12    6   20 1
  13    7    8 1
  14    7    9 1
  15    7   21 1
  16    8   11 1
  17    9   10 1
  18    9   13 1
  19    9   22 1
  20   10   11 am
  21   10   23 1
  22   11   12 2
  23   13   14 1
  24   13   24 1
  25   13   25 1
  26   14   26 1
  27   14   27 1
  28   14   28 1
  29   15   16 1
  30   16   29 1
  31   16   30 1
  32   16   31 1

#	End of record

