#	Name: ASD01811951
#	Creating user name:	WinNT
#	Creation time:	15. 06. 2019 19:27

#	Modifying user name:	WinNT
#	Modification time:	15. 06. 2019 19:27

#	Program:	/corina/corina34_cracker 3.40 0067  02.08.2006

@<TRIPOS>MOLECULE
ASD01811951
  52   55    0    0    0
SMALL
NO_CHARGES


@<TRIPOS>ATOM
   1 S1            -0.0089     1.8859    -0.0316 S.3     
   2 O2             4.4422     1.1788    -0.2364 O.2     
   3 N3             2.2920     0.6695    -0.4348 N.am    
   4 N4            -1.2871    -2.4159     0.7310 N.3     
   5 N5             6.6203    -4.6600    -1.0547 N.pl3   
   6 C6            -0.0488     0.0520    -0.0186 C.3     
   7 C7             1.2341    -0.2684    -0.8133 C.3     
   8 C8             0.0383    -0.4692     1.4040 C.3     
   9 C9            -1.2849    -0.4558    -0.7376 C.3     
  10 C10            1.8244     1.9981    -0.0090 C.3     
  11 C11           -0.0429    -1.9999     1.3913 C.3     
  12 C12           -1.3184    -1.9870    -0.6733 C.3     
  13 C13            2.3037     3.0701    -0.9898 C.3     
  14 C14            3.5985     0.3406    -0.4739 C.2     
  15 C15           -1.4823    -3.8676     0.8425 C.3     
  16 C16            4.0108    -1.0688    -0.8126 C.3     
  17 C17            5.5358    -1.1442    -0.9111 C.3     
  18 C18            5.9482    -2.5535    -1.2498 C.2     
  19 C19            6.0269    -3.1402    -2.5898 C.ar    
  20 C20            6.3138    -3.5092    -0.3809 C.2     
  21 C21            6.4552    -4.4681    -2.4082 C.ar    
  22 C22            5.7771    -2.6587    -3.8761 C.ar    
  23 C23            6.6239    -5.2876    -3.5192 C.ar    
  24 C24            5.9502    -3.4811    -4.9538 C.ar    
  25 C25            6.3709    -4.7922    -4.7798 C.ar    
  26 H26            1.0325    -0.1770    -1.8806 H       
  27 H27            1.5544    -1.2862    -0.5909 H       
  28 H28           -2.1763    -0.0522    -0.2575 H       
  29 H29           -1.2566    -0.1363    -1.7794 H       
  30 H30            0.9844    -0.1591     1.8476 H       
  31 H31           -0.7877    -0.0662     1.9900 H       
  32 H32            2.1780     2.2194     0.9980 H       
  33 H33           -0.4523    -2.3920    -1.1966 H       
  34 H34           -2.2315    -2.3509    -1.1444 H       
  35 H35           -0.0323    -2.3731     2.4153 H       
  36 H36            0.8104    -2.4048     0.8473 H       
  37 H37            1.8348     4.0230    -0.7442 H       
  38 H38            3.3869     3.1693    -0.9188 H       
  39 H39            2.0310     2.7819    -2.0049 H       
  40 H40           -1.5346    -4.1474     1.8947 H       
  41 H41           -2.4107    -4.1486     0.3453 H       
  42 H42           -0.6466    -4.3839     0.3703 H       
  43 H43            3.6632    -1.7464    -0.0328 H       
  44 H44            3.5704    -1.3567    -1.7671 H       
  45 H45            5.8835    -0.4666    -1.6909 H       
  46 H46            5.9763    -0.8562     0.0434 H       
  47 H47            6.3590    -3.3878     0.6913 H       
  48 H48            6.9142    -5.4866    -0.6409 H       
  49 H49            5.4486    -1.6399    -4.0190 H       
  50 H50            6.9525    -6.3088    -3.3943 H       
  51 H51            5.7568    -3.1081    -5.9487 H       
  52 H52            6.5029    -5.4300    -5.6413 H       
@<TRIPOS>BOND
   1    1    6 1
   2    1   10 1
   3    2   14 2
   4    3    7 1
   5    3   10 1
   6    3   14 am
   7    4   11 1
   8    4   12 1
   9    4   15 1
  10    5   20 1
  11    5   21 1
  12    5   48 1
  13    6    7 1
  14    6    8 1
  15    6    9 1
  16    7   26 1
  17    7   27 1
  18    8   11 1
  19    8   30 1
  20    8   31 1
  21    9   12 1
  22    9   28 1
  23    9   29 1
  24   10   13 1
  25   10   32 1
  26   11   35 1
  27   11   36 1
  28   12   33 1
  29   12   34 1
  30   13   37 1
  31   13   38 1
  32   13   39 1
  33   14   16 1
  34   15   40 1
  35   15   41 1
  36   15   42 1
  37   16   17 1
  38   16   43 1
  39   16   44 1
  40   17   18 1
  41   17   45 1
  42   17   46 1
  43   18   19 1
  44   18   20 2
  45   19   21 ar
  46   19   22 ar
  47   20   47 1
  48   21   23 ar
  49   22   24 ar
  50   22   49 1
  51   23   25 ar
  52   23   50 1
  53   24   25 ar
  54   24   51 1
  55   25   52 1

#	End of record

