#	Name: ASD09530082
#	Creating user name:	WinNT
#	Creation time:	15. 06. 2019 21:22

#	Modifying user name:	WinNT
#	Modification time:	15. 06. 2019 21:22

#	Program:	/corina/corina34_cracker 3.40 0067  02.08.2006

@<TRIPOS>MOLECULE
ASD09530082
  56   59    0    0    0
SMALL
NO_CHARGES


@<TRIPOS>ATOM
   1 C1            -0.0184     1.5028     0.0103 C.2     
   2 C2             0.0021    -0.0041     0.0020 C.3     
   3 O3             1.0236     2.1234     0.0037 O.2     
   4 N4            -1.1946     2.1607     0.0195 N.am    
   5 C5            -1.2145     3.6256     0.0275 C.3     
   6 C6            -1.0888     4.1294     1.4667 C.3     
   7 C7            -2.5117     4.1136    -0.5642 C.ar    
   8 C8            -2.5701     5.3711    -1.1359 C.ar    
   9 C9            -3.7660     5.8125    -1.6782 C.ar    
  10 C10           -4.8687     4.9656    -1.6249 C.ar    
  11 C11           -4.7319     3.7179    -1.0347 C.ar    
  12 N12           -3.5742     3.3336    -0.5345 N.ar    
  13 O13           -6.0630     5.3556    -2.1435 O.3     
  14 C14           -7.1455     4.4276    -2.0487 C.3     
  15 C15           -8.3976     5.0383    -2.6813 C.3     
  16 F16           -8.1469     5.3264    -4.0272 F       
  17 F17           -9.4574     4.1298    -2.5885 F       
  18 F18           -8.7334     6.2170    -2.0067 F       
  19 C19            1.4295    -0.4870    -0.0142 C.ar    
  20 C20            2.0935    -0.7142     1.1780 C.ar    
  21 C21            3.4004    -1.1569     1.1696 C.ar    
  22 C22            4.0519    -1.3752    -0.0440 C.ar    
  23 C23            3.3772    -1.1444    -1.2425 C.ar    
  24 C24            2.0687    -0.7068    -1.2212 C.ar    
  25 C25            8.0972    -2.6547    -0.0174 C.ar    
  26 N26            7.6841    -1.6318     0.6940 N.ar    
  27 C27            6.4262    -1.2187     0.6978 C.ar    
  28 C28            5.4551    -1.8500    -0.0600 C.ar    
  29 C29            5.8365    -2.9619    -0.8510 C.ar    
  30 C30            4.9214    -3.6591    -1.6475 C.ar    
  31 C31            5.3483    -4.7214    -2.3876 C.ar    
  32 C32            6.6821    -5.1230    -2.3625 C.ar    
  33 C33            7.5991    -4.4671    -1.5985 C.ar    
  34 C34            7.1948    -3.3684    -0.8234 C.ar    
  35 H35           -0.4983    -0.3791     0.8948 H       
  36 H36           -0.5153    -0.3696    -0.8850 H       
  37 H37           -2.0280     1.6644     0.0207 H       
  38 H38           -0.3805     4.0035    -0.5638 H       
  39 H39           -1.1036     5.2193     1.4727 H       
  40 H40           -1.9228     3.7515     2.0581 H       
  41 H41           -0.1506     3.7764     1.8947 H       
  42 H42           -1.6938     6.0019    -1.1592 H       
  43 H43           -3.8407     6.7902    -2.1308 H       
  44 H44           -5.5815     3.0527    -0.9881 H       
  45 H45           -6.8839     3.5093    -2.5742 H       
  46 H46           -7.3408     4.2031    -1.0001 H       
  47 H47            1.5880    -0.5445     2.1172 H       
  48 H48            3.9179    -1.3336     2.1009 H       
  49 H49            3.8766    -1.3117    -2.1854 H       
  50 H50            1.5439    -0.5316    -2.1488 H       
  51 H51            9.1366    -2.9462     0.0135 H       
  52 H52            6.1515    -0.3698     1.3064 H       
  53 H53            3.8846    -3.3580    -1.6755 H       
  54 H54            4.6420    -5.2598    -3.0022 H       
  55 H55            6.9938    -5.9683    -2.9582 H       
  56 H56            8.6297    -4.7899    -1.5886 H       
@<TRIPOS>BOND
   1    1    2 1
   2    1    3 2
   3    1    4 am
   4    2   19 1
   5    2   35 1
   6    2   36 1
   7    4    5 1
   8    4   37 1
   9    5    6 1
  10    5    7 1
  11    5   38 1
  12    6   39 1
  13    6   40 1
  14    6   41 1
  15    7    8 ar
  16    7   12 ar
  17    8    9 ar
  18    8   42 1
  19    9   10 ar
  20    9   43 1
  21   10   11 ar
  22   10   13 1
  23   11   12 ar
  24   11   44 1
  25   13   14 1
  26   14   15 1
  27   14   45 1
  28   14   46 1
  29   15   16 1
  30   15   17 1
  31   15   18 1
  32   19   20 ar
  33   19   24 ar
  34   20   21 ar
  35   20   47 1
  36   21   22 ar
  37   21   48 1
  38   22   23 ar
  39   22   28 1
  40   23   24 ar
  41   23   49 1
  42   24   50 1
  43   25   26 ar
  44   25   34 ar
  45   25   51 1
  46   26   27 ar
  47   27   28 ar
  48   27   52 1
  49   28   29 ar
  50   29   30 ar
  51   29   34 ar
  52   30   31 ar
  53   30   53 1
  54   31   32 ar
  55   31   54 1
  56   32   33 ar
  57   32   55 1
  58   33   34 ar
  59   33   56 1

#	End of record

