#	Name: ASD01200051
#	Creating user name:	WinNT
#	Creation time:	15. 06. 2019 19:08

#	Modifying user name:	WinNT
#	Modification time:	15. 06. 2019 19:08

#	Program:	/corina/corina34_cracker 3.40 0067  02.08.2006

@<TRIPOS>MOLECULE
ASD01200051
  34   36    0    0    0
SMALL
NO_CHARGES


@<TRIPOS>ATOM
   1 C1            -0.0209     1.4644    -0.1708 C.ar    
   2 C2            -0.3905     0.1787     0.2129 C.ar    
   3 C3            -1.7131    -0.2101     0.1642 C.ar    
   4 C4            -2.6867     0.6808    -0.2686 C.ar    
   5 C5            -2.3213     1.9791    -0.6567 C.ar    
   6 C6            -0.9801     2.3660    -0.5991 C.ar    
   7 C7            -3.3478     2.9312    -1.1174 C.2     
   8 N8            -3.0170     4.2159    -1.3557 N.am    
   9 C9            -3.9844     5.1131    -1.7898 C.2     
  10 N10           -3.7731     6.3660    -2.0472 N.2     
  11 C11           -4.8097     7.0759    -2.4520 C.2     
  12 C12           -5.9509     6.3902    -2.5410 C.2     
  13 S13           -5.6256     4.7242    -2.0697 S.3     
  14 O14           -4.4933     2.5577    -1.2825 O.2     
  15 C15           -4.7121     8.5420    -2.7866 C.3     
  16 S16            1.6721     1.9483    -0.1044 S.3     
  17 N17           -4.0203     0.2872    -0.3178 N.pl3   
  18 C18            2.2117     1.3917    -1.6866 C.2     
  19 N19            1.4984     0.7260    -2.5650 N.2     
  20 N20            2.2076     0.4830    -3.6090 N.2     
  21 C21            3.4053     0.9747    -3.4607 C.2     
  22 N22            3.4493     1.5762    -2.2337 N.pl3   
  23 H23            0.3622    -0.5184     0.5503 H       
  24 H24           -1.9921    -1.2098     0.4629 H       
  25 H25           -0.6912     3.3634    -0.8961 H       
  26 H26           -2.1033     4.5138    -1.2241 H       
  27 H27           -6.9064     6.7865    -2.8514 H       
  28 H28           -4.4704     8.6582    -3.8431 H       
  29 H29           -5.6654     9.0269    -2.5765 H       
  30 H30           -3.9299     9.0014    -2.1823 H       
  31 H31           -4.2458    -0.6522    -0.4045 H       
  32 H32           -4.7244     0.9523    -0.2653 H       
  33 H33            4.2122     0.9210    -4.1765 H       
  34 H34            4.2046     2.0338    -1.8325 H       
@<TRIPOS>BOND
   1    1    2 ar
   2    1   16 1
   3    1    6 ar
   4    2    3 ar
   5    2   23 1
   6    3    4 ar
   7    3   24 1
   8    4    5 ar
   9    4   17 1
  10    5    6 ar
  11    5    7 1
  12    6   25 1
  13    7    8 am
  14    7   14 2
  15    8    9 1
  16    8   26 1
  17    9   10 2
  18    9   13 1
  19   10   11 1
  20   11   12 2
  21   11   15 1
  22   12   13 1
  23   12   27 1
  24   15   28 1
  25   15   29 1
  26   15   30 1
  27   16   18 1
  28   17   31 1
  29   17   32 1
  30   18   19 2
  31   18   22 1
  32   19   20 1
  33   20   21 2
  34   21   22 1
  35   21   33 1
  36   22   34 1

#	End of record

