#	Name: ASD01884154
#	Creating user name:	WinNT
#	Creation time:	15. 06. 2019 19:47

#	Modifying user name:	WinNT
#	Modification time:	15. 06. 2019 19:47

#	Program:	/corina/corina34_cracker 3.40 0067  02.08.2006

@<TRIPOS>MOLECULE
ASD01884154
  27   28    0    0    0
SMALL
NO_CHARGES


@<TRIPOS>ATOM
   1 C1            -0.0187     1.5261     0.0104 C.3     
   2 C2             0.0021    -0.0041     0.0020 C.3     
   3 C3             0.7375    -0.4928    -1.2489 C.3     
   4 C4             2.1530     0.0910    -1.2600 C.3     
   5 C5             2.0699     1.6185    -1.2150 C.3     
   6 N6             1.3585     2.0357     0.0000 N.3     
   7 C7             0.8136    -1.9978    -1.2326 C.ar    
   8 C8             1.4553    -2.6457    -0.1944 C.ar    
   9 C9             1.5259    -4.0261    -0.1781 C.ar    
  10 C10            0.9532    -4.7612    -1.2021 C.ar    
  11 C11            0.3096    -4.1132    -2.2425 C.ar    
  12 C12            0.2354    -2.7312    -2.2553 C.ar    
  13 F13           -0.3923    -2.0975    -3.2700 F       
  14 F14            1.0227    -6.1103    -1.1862 F       
  15 H15           -0.5461     1.8871    -0.8725 H       
  16 H16           -0.5291     1.8775     0.9071 H       
  17 H17            0.5174    -0.3659     0.8918 H       
  18 H18           -1.0203    -0.3818    -0.0060 H       
  19 H19            0.2008    -0.1639    -2.1388 H       
  20 H20            2.7021    -0.2693    -0.3901 H       
  21 H21            2.6673    -0.2188    -2.1698 H       
  22 H22            3.0763     2.0369    -1.2084 H       
  23 H23            1.5326     1.9790    -2.0923 H       
  24 H24            1.3734     3.0395     0.1011 H       
  25 H25            1.9023    -2.0731     0.6048 H       
  26 H26            2.0283    -4.5314     0.6335 H       
  27 H27           -0.1374    -4.6858    -3.0417 H       
@<TRIPOS>BOND
   1    1    2 1
   2    1    6 1
   3    1   15 1
   4    1   16 1
   5    2    3 1
   6    2   17 1
   7    2   18 1
   8    3    4 1
   9    3    7 1
  10    3   19 1
  11    4    5 1
  12    4   20 1
  13    4   21 1
  14    5    6 1
  15    5   22 1
  16    5   23 1
  17    6   24 1
  18    7    8 ar
  19    7   12 ar
  20    8    9 ar
  21    8   25 1
  22    9   10 ar
  23    9   26 1
  24   10   11 ar
  25   10   14 1
  26   11   12 ar
  27   11   27 1
  28   12   13 1

#	End of record

