#	Name: ASD07480003
#	Creating user name:	WinNT
#	Creation time:	15. 06. 2019 21:11

#	Modifying user name:	WinNT
#	Modification time:	15. 06. 2019 21:11

#	Program:	/corina/corina34_cracker 3.40 0067  02.08.2006

@<TRIPOS>MOLECULE
ASD07480003
  52   56    0    0    0
SMALL
NO_CHARGES


@<TRIPOS>ATOM
   1 C1            -0.0170     1.4041     0.0098 C.2     
   2 C2             0.0021    -0.0041     0.0020 C.2     
   3 N3             1.1378    -0.6601    -0.0123 N.2     
   4 N4             2.3558     0.0267    -0.0202 N.pl3   
   5 C5             2.3710     1.4006    -0.0130 C.2     
   6 C6             1.1496     2.1021     0.0024 C.2     
   7 C7             3.6547    -0.3879    -0.0353 C.2     
   8 C8             4.4317     0.7296    -0.0369 C.2     
   9 N9             3.6350     1.7994    -0.0233 N.2     
  10 N10           -1.1986    -0.7081     0.0101 N.pl3   
  11 C11           -1.3335    -2.1721     0.0036 C.3     
  12 C12           -2.5455    -0.1093     0.0331 C.3     
  13 C13           -3.4709    -1.1912    -0.5774 C.3     
  14 C14           -2.8429    -2.4930    -0.0095 C.3     
  15 C15           -0.6971    -2.7509     1.2410 C.ar    
  16 C16           -0.2354    -4.0559     1.2360 C.ar    
  17 C17            0.3497    -4.5877     2.3728 C.ar    
  18 C18            0.4732    -3.8156     3.5119 C.ar    
  19 C19            0.0113    -2.5101     3.5168 C.ar    
  20 C20           -0.5693    -1.9770     2.3789 C.ar    
  21 F21           -0.3561    -4.8109     0.1221 F       
  22 F22            0.1316    -1.7553     4.6308 F       
  23 N23            4.1042    -1.7128    -0.0464 N.am    
  24 C24            5.4259    -1.9759    -0.0609 C.2     
  25 O25            6.2278    -1.0617    -0.0643 O.2     
  26 C26            5.9009    -3.3758    -0.0727 C.2     
  27 N27            5.0324    -4.3622    -0.0690 N.2     
  28 C28            7.2900    -3.6497    -0.0938 C.2     
  29 C29            7.6904    -4.9527    -0.1046 C.2     
  30 C30            6.6919    -5.9520    -0.0940 C.2     
  31 N31            5.3943    -5.5940    -0.0792 N.am    
  32 C32            4.3671    -6.6385    -0.0678 C.3     
  33 O33            7.0034    -7.1314    -0.1031 O.2     
  34 H34           -0.9601     1.9303     0.0171 H       
  35 H35            1.1399     3.1820     0.0079 H       
  36 H36            5.5115     0.7472    -0.0470 H       
  37 H37           -0.8568    -2.5843    -0.8857 H       
  38 H38           -2.8449     0.1119     1.0576 H       
  39 H39           -2.5687     0.7960    -0.5736 H       
  40 H40           -4.4968    -1.0695    -0.2295 H       
  41 H41           -3.4248    -1.1756    -1.6663 H       
  42 H42           -3.0520    -3.3393    -0.6638 H       
  43 H43           -3.2040    -2.6866     1.0006 H       
  44 H44            0.7093    -5.6060     2.3691 H       
  45 H45            0.9296    -4.2303     4.3985 H       
  46 H46           -0.9292    -0.9588     2.3827 H       
  47 H47            3.4645    -2.4420    -0.0437 H       
  48 H48            8.0130    -2.8475    -0.1015 H       
  49 H49            8.7384    -5.2130    -0.1211 H       
  50 H50            4.1241    -6.8978     0.9626 H       
  51 H51            3.4721    -6.2733    -0.5714 H       
  52 H52            4.7410    -7.5214    -0.5861 H       
@<TRIPOS>BOND
   1    1    2 1
   2    1    6 2
   3    1   34 1
   4    2    3 2
   5    2   10 1
   6    3    4 1
   7    4    5 1
   8    4    7 1
   9    5    6 1
  10    5    9 2
  11    6   35 1
  12    7    8 2
  13    7   23 1
  14    8    9 1
  15    8   36 1
  16   10   11 1
  17   10   12 1
  18   11   15 1
  19   11   14 1
  20   11   37 1
  21   12   13 1
  22   12   38 1
  23   12   39 1
  24   13   14 1
  25   13   40 1
  26   13   41 1
  27   14   42 1
  28   14   43 1
  29   15   16 ar
  30   15   20 ar
  31   16   17 ar
  32   16   21 1
  33   17   18 ar
  34   17   44 1
  35   18   19 ar
  36   18   45 1
  37   19   20 ar
  38   19   22 1
  39   20   46 1
  40   23   24 am
  41   23   47 1
  42   24   25 2
  43   24   26 1
  44   26   27 2
  45   26   28 1
  46   27   31 1
  47   28   29 2
  48   28   48 1
  49   29   30 1
  50   29   49 1
  51   30   31 am
  52   30   33 2
  53   31   32 1
  54   32   50 1
  55   32   51 1
  56   32   52 1

#	End of record

