#	Name: ASD06340086
#	Creating user name:	WinNT
#	Creation time:	15. 06. 2019 21:06

#	Modifying user name:	WinNT
#	Modification time:	15. 06. 2019 21:06

#	Program:	/corina/corina34_cracker 3.40 0067  02.08.2006

@<TRIPOS>MOLECULE
ASD06340086
  47   49    0    0    0
SMALL
NO_CHARGES


@<TRIPOS>ATOM
   1 S1            -0.0210     1.6939     0.0114 S.3     
   2 N2             0.0021    -0.0041     0.0020 N.am    
   3 C3             1.2962    -0.3594    -0.0122 C.2     
   4 N4             2.1856     0.6226    -0.0155 N.am    
   5 C5             1.6912     1.8721    -0.0040 C.2     
   6 O6             1.6365    -1.5276    -0.0214 O.2     
   7 O7             2.3224     2.9128    -0.0052 O.2     
   8 C8             3.6269     0.3610    -0.0302 C.3     
   9 C9             4.1080     0.2785    -1.4559 C.ar    
  10 C10            4.5425     1.4186    -2.1058 C.ar    
  11 C11            4.9837     1.3430    -3.4137 C.ar    
  12 C12            4.9909     0.1272    -4.0715 C.ar    
  13 C13            4.5573    -1.0130    -3.4213 C.ar    
  14 C14            4.1201    -0.9381    -2.1121 C.ar    
  15 C15            5.4710     0.0450    -5.4976 C.3     
  16 C16            6.9249     0.5152    -5.5742 C.3     
  17 C17            5.3768    -1.4024    -5.9848 C.3     
  18 C18            4.5987     0.9385    -6.3817 C.3     
  19 C19           -1.1036    -0.8590     0.0084 C.ar    
  20 C20           -2.3257    -0.4205    -0.4857 C.ar    
  21 C21           -3.2923    -2.5519     0.0205 C.ar    
  22 C22           -0.9815    -2.1514     0.5036 C.ar    
  23 C23           -3.4159    -1.2680    -0.4784 C.ar    
  24 C24           -2.0758    -2.9936     0.5079 C.ar    
  25 C25           -4.4845    -3.4738     0.0274 C.3     
  26 H26            4.1482     1.1691     0.4830 H       
  27 H27            3.8302    -0.5822     0.4770 H       
  28 H28            4.5369     2.3685    -1.5919 H       
  29 H29            5.3225     2.2338    -3.9216 H       
  30 H30            4.5625    -1.9628    -3.9354 H       
  31 H31            3.7848    -1.8296    -1.6029 H       
  32 H32            7.5463    -0.1213    -4.9444 H       
  33 H33            7.2721     0.4557    -6.6057 H       
  34 H34            6.9920     1.5463    -5.2272 H       
  35 H35            4.3410    -1.7374    -5.9302 H       
  36 H36            5.7240    -1.4619    -7.0163 H       
  37 H37            5.9982    -2.0389    -5.3549 H       
  38 H38            4.6658     1.9695    -6.0347 H       
  39 H39            4.9459     0.8790    -7.4132 H       
  40 H40            3.5629     0.6034    -6.3271 H       
  41 H41           -2.4231     0.5823    -0.8749 H       
  42 H42           -0.0318    -2.4970     0.8843 H       
  43 H43           -4.3663    -0.9277    -0.8623 H       
  44 H44           -1.9828    -3.9969     0.8969 H       
  45 H45           -4.5152    -4.0349    -0.9066 H       
  46 H46           -4.4032    -4.1665     0.8650 H       
  47 H47           -5.3972    -2.8866     0.1287 H       
@<TRIPOS>BOND
   1    1    2 1
   2    1    5 1
   3    2    3 am
   4    2   19 1
   5    3    4 am
   6    3    6 2
   7    4    5 am
   8    4    8 1
   9    5    7 2
  10    8    9 1
  11    8   26 1
  12    8   27 1
  13    9   10 ar
  14    9   14 ar
  15   10   11 ar
  16   10   28 1
  17   11   12 ar
  18   11   29 1
  19   12   13 ar
  20   12   15 1
  21   13   14 ar
  22   13   30 1
  23   14   31 1
  24   15   16 1
  25   15   18 1
  26   15   17 1
  27   16   32 1
  28   16   33 1
  29   16   34 1
  30   17   35 1
  31   17   36 1
  32   17   37 1
  33   18   38 1
  34   18   39 1
  35   18   40 1
  36   19   20 ar
  37   19   22 ar
  38   20   23 ar
  39   20   41 1
  40   21   23 ar
  41   21   24 ar
  42   21   25 1
  43   22   24 ar
  44   22   42 1
  45   23   43 1
  46   24   44 1
  47   25   45 1
  48   25   46 1
  49   25   47 1

#	End of record

