#	Name: ASD01148248
#	Creating user name:	WinNT
#	Creation time:	15. 06. 2019 19:02

#	Modifying user name:	WinNT
#	Modification time:	15. 06. 2019 19:02

#	Program:	/corina/corina34_cracker 3.40 0067  02.08.2006

@<TRIPOS>MOLECULE
ASD01148248
  45   48    0    0    0
SMALL
NO_CHARGES


@<TRIPOS>ATOM
   1 C1            -0.0167     1.3802     0.0096 C.ar    
   2 C2             0.0021    -0.0041     0.0020 C.ar    
   3 C3            -1.1879    -0.7115     0.0095 C.ar    
   4 C4            -2.3943    -0.0346     0.0246 C.ar    
   5 C5            -2.4118     1.3476     0.0318 C.ar    
   6 C6            -1.2242     2.0549     0.0305 C.ar    
   7 C7            -3.7266     2.0838     0.0472 C.3     
   8 O8            -4.7319     1.3302     0.7551 O.3     
   9 C9            -3.6325     3.3676     0.9059 C.3     
  10 C10           -4.1241     2.8947     2.2608 C.2     
  11 N11           -4.7189     1.7600     2.1020 N.2     
  12 C12           -3.9513     3.6088     3.5410 C.ar    
  13 C13           -4.4558     3.0581     4.7219 C.ar    
  14 C14           -3.2782     4.8329     3.5729 C.ar    
  15 C15           -3.1171     5.4988     4.7667 C.ar    
  16 C16           -3.6267     4.9508     5.9466 C.ar    
  17 C17           -4.2947     3.7241     5.9157 C.ar    
  18 C18           -3.4538     5.6657     7.2280 C.2     
  19 O19           -2.8682     6.7305     7.2557 O.2     
  20 N20           -3.9453     5.1371     8.3662 N.am    
  21 C21           -4.1861     2.4082    -1.3756 C.3     
  22 F22           -4.3286     1.2209    -2.1018 F       
  23 F23           -5.4146     3.0760    -1.3281 F       
  24 F24           -3.2355     3.2243    -1.9980 F       
  25 Cl25          -1.1662    -2.4473    -0.0006 Cl      
  26 Cl26           1.5167    -0.8522    -0.0175 Cl      
  27 Cl27           1.4745     2.2689     0.0002 Cl      
  28 C28           -3.7828     5.8088     9.5703 C.ar    
  29 N29           -4.2721     5.2751    10.6791 N.ar    
  30 N30           -3.1377     6.9652     9.5831 N.ar    
  31 C31           -2.9654     7.6309    10.7130 C.ar    
  32 C32           -3.4696     7.1039    11.8918 C.ar    
  33 C33           -4.1348     5.8888    11.8427 C.ar    
  34 H34           -3.3227    -0.5862     0.0305 H       
  35 H35           -1.2391     3.1348     0.0365 H       
  36 H36           -2.6017     3.7165     0.9685 H       
  37 H37           -4.2826     4.1472     0.5089 H       
  38 H38           -4.9725     2.1100     4.6979 H       
  39 H39           -2.8840     5.2563     2.6609 H       
  40 H40           -2.5966     6.4447     4.7915 H       
  41 H41           -4.6886     3.3006     6.8277 H       
  42 H42           -4.4126     4.2874     8.3441 H       
  43 H43           -2.4380     8.5734    10.7172 H       
  44 H44           -3.3429     7.6263    12.8285 H       
  45 H45           -4.5400     5.4507    12.7429 H       
@<TRIPOS>BOND
   1    1    2 ar
   2    1   27 1
   3    1    6 ar
   4    2    3 ar
   5    2   26 1
   6    3    4 ar
   7    3   25 1
   8    4    5 ar
   9    4   34 1
  10    5    6 ar
  11    5    7 1
  12    6   35 1
  13    7    8 1
  14    7    9 1
  15    7   21 1
  16    8   11 1
  17    9   10 1
  18    9   36 1
  19    9   37 1
  20   10   11 2
  21   10   12 1
  22   12   13 ar
  23   12   14 ar
  24   13   17 ar
  25   13   38 1
  26   14   15 ar
  27   14   39 1
  28   15   16 ar
  29   15   40 1
  30   16   17 ar
  31   16   18 1
  32   17   41 1
  33   18   19 2
  34   18   20 am
  35   20   28 1
  36   20   42 1
  37   21   22 1
  38   21   23 1
  39   21   24 1
  40   28   29 ar
  41   28   30 ar
  42   29   33 ar
  43   30   31 ar
  44   31   32 ar
  45   31   43 1
  46   32   33 ar
  47   32   44 1
  48   33   45 1

#	End of record

