#	Name: ASD04560156
#	Creating user name:	WinNT
#	Creation time:	15. 06. 2019 20:49

#	Modifying user name:	WinNT
#	Modification time:	15. 06. 2019 20:49

#	Program:	/corina/corina34_cracker 3.40 0067  02.08.2006

@<TRIPOS>MOLECULE
ASD04560156
  47   49    0    0    0
SMALL
NO_CHARGES


@<TRIPOS>ATOM
   1 C1            -0.2166     1.1287     0.7321 C.ar    
   2 C2            -0.1871    -0.2301     0.5527 C.ar    
   3 C3             0.9944    -0.8572     0.1638 C.ar    
   4 C4             2.1490    -0.1061    -0.0440 C.ar    
   5 C5             2.1257     1.2529     0.1343 C.ar    
   6 C6             0.9409     1.8853     0.5243 C.ar    
   7 C7             0.9124     3.3470     0.7164 C.2     
   8 O8             1.9436     3.9508     0.9423 O.2     
   9 N9            -0.2564     4.0138     0.6416 N.am    
  10 C10           -0.3027     5.3805     0.9399 C.ar    
  11 C11           -1.4701     6.1005     0.7224 C.ar    
  12 C12            0.7688     7.3657     1.7534 C.ar    
  13 C13            0.8168     6.0171     1.4592 C.ar    
  14 S14            1.0286    -2.6039    -0.0652 S.3     
  15 C15           -1.5138     7.4489     1.0180 C.ar    
  16 C16           -0.3945     8.0830     1.5304 C.ar    
  17 F17           -0.4393     9.4021     1.8188 F       
  18 C18            2.7467    -2.9176    -0.5555 C.3     
  19 C19            2.9401    -4.3933    -0.7921 C.ar    
  20 C20            2.8212    -4.9155    -2.0788 C.ar    
  21 C21            3.2409    -5.2291     0.2639 C.ar    
  22 C22            3.0018    -6.2815    -2.2905 C.ar    
  23 C23            3.2971    -7.1087    -1.2267 C.ar    
  24 C24           -1.4784     3.3082     0.2480 C.3     
  25 C25            3.4192    -6.5840     0.0480 C.ar    
  26 B26            2.4844    -3.9689    -3.2852 Du      
  27 O27            3.0086    -4.2487    -4.5749 O.3     
  28 O28            1.6557    -2.8331    -3.0867 O.3     
  29 H29           -1.1341     1.6149     1.0293 H       
  30 H30           -1.0807    -0.8150     0.7134 H       
  31 H31            3.0636    -0.5950    -0.3455 H       
  32 H32            3.0214     1.8346    -0.0263 H       
  33 H33           -2.3431     5.6064     0.3221 H       
  34 H34            1.6393     7.8612     2.1573 H       
  35 H35            1.7243     5.4580     1.6333 H       
  36 H36           -2.4215     8.0092     0.8490 H       
  37 H37            2.9688    -2.3705    -1.4717 H       
  38 H38            3.4171    -2.5858     0.2374 H       
  39 H39            3.3377    -4.8248     1.2607 H       
  40 H40            2.9104    -6.6915    -3.2855 H       
  41 H41            3.4373    -8.1671    -1.3896 H       
  42 H42           -2.0263     3.0049     1.1402 H       
  43 H43           -2.1019     3.9693    -0.3540 H       
  44 H44           -1.2164     2.4253    -0.3351 H       
  45 H45            3.6505    -7.2352     0.8780 H       
  46 H46            2.7468    -3.6107    -5.2528 H       
  47 H47            1.5050    -2.3115    -3.8869 H       
@<TRIPOS>BOND
   1    1    2 ar
   2    1    6 ar
   3    1   29 1
   4    2    3 ar
   5    2   30 1
   6    3    4 ar
   7    3   14 1
   8    4    5 ar
   9    4   31 1
  10    5    6 ar
  11    5   32 1
  12    6    7 1
  13    7    8 2
  14    7    9 am
  15    9   10 1
  16    9   24 1
  17   10   11 ar
  18   10   13 ar
  19   11   15 ar
  20   11   33 1
  21   12   13 ar
  22   12   16 ar
  23   12   34 1
  24   13   35 1
  25   14   18 1
  26   15   16 ar
  27   15   36 1
  28   16   17 1
  29   18   19 1
  30   18   37 1
  31   18   38 1
  32   19   20 ar
  33   19   21 ar
  34   20   26 1
  35   20   22 ar
  36   21   25 ar
  37   21   39 1
  38   22   23 ar
  39   22   40 1
  40   23   25 ar
  41   23   41 1
  42   24   42 1
  43   24   43 1
  44   24   44 1
  45   25   45 1
  46   26   27 1
  47   26   28 1
  48   27   46 1
  49   28   47 1

#	End of record

