#	Name: ASD07300490
#	Creating user name:	WinNT
#	Creation time:	15. 06. 2019 21:09

#	Modifying user name:	WinNT
#	Modification time:	15. 06. 2019 21:09

#	Program:	/corina/corina34_cracker 3.40 0067  02.08.2006

@<TRIPOS>MOLECULE
ASD07300490
  46   49    0    0    0
SMALL
NO_CHARGES


@<TRIPOS>ATOM
   1 C1            -0.0168     1.3865     0.0097 C.ar    
   2 C2             0.0021    -0.0041     0.0020 C.ar    
   3 C3             1.2002    -0.6829    -0.0134 C.ar    
   4 C4             2.3767     0.0578    -0.0210 C.ar    
   5 C5             2.2970     1.4364    -0.0128 C.ar    
   6 N6             1.1336     2.0539     0.0023 N.ar    
   7 N7            -1.3307     1.8466     0.0303 N.am    
   8 C8            -1.4399    -0.4518     0.0142 C.3     
   9 C9            -2.2242     0.8433     0.0374 C.2     
  10 O10           -3.4318     0.9541     0.0547 O.2     
  11 C11           -1.7617    -1.2596    -1.2447 C.3     
  12 C12           -1.7362    -1.2731     1.2707 C.3     
  13 C13           -1.6818     3.2042     0.0429 C.ar    
  14 C14           -0.6919     4.1777     0.0342 C.ar    
  15 C15           -1.0383     5.5143     0.0466 C.ar    
  16 C16           -2.3750     5.8846     0.0677 C.ar    
  17 C17           -3.3646     4.9123     0.0763 C.ar    
  18 C18           -3.0196     3.5754     0.0581 C.ar    
  19 O19           -2.7155     7.2008     0.0803 O.3     
  20 C20           -4.1105     7.5100     0.1018 C.3     
  21 C21           -4.2934     9.0058     0.1133 C.ar    
  22 C22           -4.3942     9.6989    -1.0785 C.ar    
  23 C23           -4.5619    11.0710    -1.0680 C.ar    
  24 C24           -4.6294    11.7499     0.1343 C.ar    
  25 C25           -4.5295    11.0566     1.3261 C.ar    
  26 C26           -4.3661     9.6840     1.3156 C.ar    
  27 H27            1.2252    -1.7626    -0.0191 H       
  28 H28            3.3368    -0.4366    -0.0327 H       
  29 H29            3.2061     2.0195    -0.0182 H       
  30 H30           -1.1186    -2.1387    -1.2866 H       
  31 H31           -2.8051    -1.5736    -1.2181 H       
  32 H32           -1.5905    -0.6419    -2.1263 H       
  33 H33           -1.5471    -0.6649     2.1553 H       
  34 H34           -2.7800    -1.5869     1.2619 H       
  35 H35           -1.0925    -2.1525     1.2901 H       
  36 H36            0.3488     3.8895     0.0182 H       
  37 H37           -0.2683     6.2716     0.0403 H       
  38 H38           -4.4051     5.2012     0.0930 H       
  39 H39           -3.7901     2.8187     0.0600 H       
  40 H40           -4.5889     7.0922    -0.7841 H       
  41 H41           -4.5638     7.0816     0.9957 H       
  42 H42           -4.3415     9.1685    -2.0178 H       
  43 H43           -4.6400    11.6127    -1.9991 H       
  44 H44           -4.7597    12.8220     0.1425 H       
  45 H45           -4.5819    11.5870     2.2654 H       
  46 H46           -4.2918     9.1419     2.2467 H       
@<TRIPOS>BOND
   1    1    2 ar
   2    1    6 ar
   3    1    7 1
   4    2    3 ar
   5    2    8 1
   6    3    4 ar
   7    3   27 1
   8    4    5 ar
   9    4   28 1
  10    5    6 ar
  11    5   29 1
  12    7    9 am
  13    7   13 1
  14    8    9 1
  15    8   11 1
  16    8   12 1
  17    9   10 2
  18   11   30 1
  19   11   31 1
  20   11   32 1
  21   12   33 1
  22   12   34 1
  23   12   35 1
  24   13   14 ar
  25   13   18 ar
  26   14   15 ar
  27   14   36 1
  28   15   16 ar
  29   15   37 1
  30   16   17 ar
  31   16   19 1
  32   17   18 ar
  33   17   38 1
  34   18   39 1
  35   19   20 1
  36   20   21 1
  37   20   40 1
  38   20   41 1
  39   21   22 ar
  40   21   26 ar
  41   22   23 ar
  42   22   42 1
  43   23   24 ar
  44   23   43 1
  45   24   25 ar
  46   24   44 1
  47   25   26 ar
  48   25   45 1
  49   26   46 1

#	End of record

