#	Name: ASD01916734
#	Creating user name:	WinNT
#	Creation time:	15. 06. 2019 20:07

#	Modifying user name:	WinNT
#	Modification time:	15. 06. 2019 20:07

#	Program:	/corina/corina34_cracker 3.40 0067  02.08.2006

@<TRIPOS>MOLECULE
ASD01916734
  46   49    0    0    0
SMALL
NO_CHARGES


@<TRIPOS>ATOM
   1 C1            -0.0171     1.4092     0.0115 C.ar    
   2 C2             0.0025    -0.0032     0.0105 C.ar    
   3 C3            -1.1894    -0.7235     0.0515 C.ar    
   4 C4            -2.3835    -0.0607     0.0794 C.ar    
   5 C5            -2.4211     1.3390     0.0678 C.ar    
   6 C6            -1.2435     2.0760     0.0342 C.ar    
   7 N7             1.1589     2.0750     0.0012 N.2     
   8 C8             2.3199     1.4690    -0.0368 C.2     
   9 N9             2.4226     0.1206    -0.1473 N.am    
  10 C10            1.3137    -0.6628    -0.0493 C.2     
  11 C11           -3.7251     2.0389     0.0909 C.2     
  12 O12            1.4060    -1.8758    -0.0126 O.2     
  13 N13           -4.8704     1.3291     0.1231 N.am    
  14 C14            3.5343     2.3491     0.1008 C.3     
  15 C15            4.7920     1.6957    -0.4279 C.3     
  16 C16            4.8988     0.2418    -0.0159 C.3     
  17 C17            3.6833    -0.5605    -0.4215 C.3     
  18 C18            6.1383    -0.3699    -0.6720 C.3     
  19 C19            5.0575     0.1674     1.5040 C.3     
  20 C20           -6.0927     1.9847     0.2537 C.ar    
  21 N21           -6.1174     3.2945     0.4427 N.ar    
  22 C22           -7.2530     3.9538     0.5712 C.ar    
  23 C23           -8.4649     3.2947     0.5129 C.ar    
  24 C24           -8.4825     1.9204     0.3159 C.ar    
  25 C25           -7.2758     1.2577     0.1785 C.ar    
  26 O26           -3.7631     3.2535     0.0810 O.2     
  27 H27           -1.1692    -1.8033     0.0608 H       
  28 H28           -3.3063    -0.6210     0.1104 H       
  29 H29           -1.2767     3.1554     0.0261 H       
  30 H30           -4.8436     0.3619     0.0553 H       
  31 H31            3.3617     3.2753    -0.4475 H       
  32 H32            3.6782     2.5881     1.1545 H       
  33 H33            4.7911     1.7558    -1.5163 H       
  34 H34            5.6585     2.2359    -0.0464 H       
  35 H35            3.6935    -1.5076     0.1180 H       
  36 H36            3.7427    -0.7692    -1.4897 H       
  37 H37            7.0264     0.1714    -0.3460 H       
  38 H38            6.2239    -1.4169    -0.3814 H       
  39 H39            6.0475    -0.2999    -1.7559 H       
  40 H40            4.1907     0.6231     1.9826 H       
  41 H41            5.1352    -0.8757     1.8106 H       
  42 H42            5.9597     0.7017     1.8017 H       
  43 H43           -7.2344     5.0227     0.7244 H       
  44 H44           -9.3895     3.8424     0.6199 H       
  45 H45           -9.4172     1.3816     0.2665 H       
  46 H46           -7.2527     0.1891     0.0236 H       
@<TRIPOS>BOND
   1    1    2 ar
   2    1    7 1
   3    1    6 ar
   4    2    3 ar
   5    2   10 1
   6    3    4 ar
   7    3   27 1
   8    4    5 ar
   9    4   28 1
  10    5    6 ar
  11    5   11 1
  12    6   29 1
  13    7    8 2
  14    8    9 1
  15    8   14 1
  16    9   10 am
  17    9   17 1
  18   10   12 2
  19   11   13 am
  20   11   26 2
  21   13   20 1
  22   13   30 1
  23   14   15 1
  24   14   31 1
  25   14   32 1
  26   15   16 1
  27   15   33 1
  28   15   34 1
  29   16   17 1
  30   16   18 1
  31   16   19 1
  32   17   35 1
  33   17   36 1
  34   18   37 1
  35   18   38 1
  36   18   39 1
  37   19   40 1
  38   19   41 1
  39   19   42 1
  40   20   21 ar
  41   20   25 ar
  42   21   22 ar
  43   22   23 ar
  44   22   43 1
  45   23   24 ar
  46   23   44 1
  47   24   25 ar
  48   24   45 1
  49   25   46 1

#	End of record

