#	Name: ASD05720090
#	Creating user name:	WinNT
#	Creation time:	15. 06. 2019 21:01

#	Modifying user name:	WinNT
#	Modification time:	15. 06. 2019 21:01

#	Program:	/corina/corina34_cracker 3.40 0067  02.08.2006

@<TRIPOS>MOLECULE
ASD05720090
  58   58    0    0    0
SMALL
NO_CHARGES


@<TRIPOS>ATOM
   1 C1            -0.0187     1.5258     0.0104 C.3     
   2 C2             0.0021    -0.0041     0.0020 C.3     
   3 C3             0.7421    -0.5109     1.2415 C.3     
   4 S4            -1.6997    -0.6320     0.0149 S.o     
   5 O5            -1.6913    -2.0286    -0.2471 O.2     
   6 N6            -2.3418     0.0035    -1.3730 N.am    
   7 C7             0.7182    -0.4975    -1.2568 C.3     
   8 C8            -3.7338    -0.2785    -1.7322 C.3     
   9 C9            -3.8551    -0.3918    -3.2532 C.3     
  10 C10           -4.6160     0.8396    -1.2398 C.ar    
  11 C11           -5.5601     0.5851    -0.2628 C.ar    
  12 C12           -6.3664     1.6208     0.1836 C.ar    
  13 C13           -6.1921     2.8793    -0.3720 C.ar    
  14 C14           -5.2275     3.0581    -1.3451 C.ar    
  15 N15           -4.4748     2.0505    -1.7420 N.ar    
  16 C16           -5.0294     4.4216    -1.9557 C.3     
  17 O17           -3.1107    -1.5239    -3.7074 O.3     
  18 Si18          -3.1649    -1.7491    -5.3219 Si      
  19 C19           -4.9319    -2.0034    -5.8545 C.3     
  20 C20           -2.4666    -0.2511    -6.1816 C.3     
  21 C21           -2.1579    -3.2500    -5.7736 C.3     
  22 C22           -2.7313    -4.4803    -5.0675 C.3     
  23 C23           -2.2087    -3.4613    -7.2881 C.3     
  24 C24           -0.7067    -3.0411    -5.3362 C.3     
  25 H25            1.0039     1.9031     0.0027 H       
  26 H26           -0.5459     1.8868    -0.8726 H       
  27 H27           -0.5289     1.8773     0.9072 H       
  28 H28            0.2319    -0.1594     2.1383 H       
  29 H29            0.7568    -1.6008     1.2356 H       
  30 H30            1.7647    -0.1336     1.2338 H       
  31 H31           -1.7962     0.5625    -1.9482 H       
  32 H32            1.7408    -0.1202    -1.2645 H       
  33 H33            0.7330    -1.5874    -1.2628 H       
  34 H34            0.1910    -0.1364    -2.1398 H       
  35 H35           -4.0449    -1.2163    -1.2720 H       
  36 H36           -4.9034    -0.5130    -3.5260 H       
  37 H37           -3.4611     0.5122    -3.7174 H       
  38 H38           -5.6686    -0.4080     0.1474 H       
  39 H39           -7.1127     1.4513     0.9456 H       
  40 H40           -6.8028     3.7092    -0.0484 H       
  41 H41           -4.2905     4.9752    -1.3765 H       
  42 H42           -4.6791     4.3125    -2.9821 H       
  43 H43           -5.9754     4.9630    -1.9503 H       
  44 H44           -5.5210    -1.1253    -5.5901 H       
  45 H45           -4.9681    -2.1540    -6.9334 H       
  46 H46           -5.3404    -2.8799    -5.3514 H       
  47 H47           -1.4328    -0.1022    -5.8700 H       
  48 H48           -2.5028    -0.4016    -7.2606 H       
  49 H49           -3.0558     0.6271    -5.9173 H       
  50 H50           -3.7652    -4.6291    -5.3791 H       
  51 H51           -2.1422    -5.3584    -5.3318 H       
  52 H52           -2.6951    -4.3297    -3.9886 H       
  53 H53           -1.8002    -2.5848    -7.7911 H       
  54 H54           -1.6196    -4.3394    -7.5524 H       
  55 H55           -3.2426    -3.6101    -7.5997 H       
  56 H56           -0.6705    -2.8906    -4.2573 H       
  57 H57           -0.1176    -3.9193    -5.6005 H       
  58 H58           -0.2982    -2.1646    -5.8393 H       
@<TRIPOS>BOND
   1    1    2 1
   2    1   25 1
   3    1   26 1
   4    1   27 1
   5    2    3 1
   6    2    4 1
   7    2    7 1
   8    3   28 1
   9    3   29 1
  10    3   30 1
  11    4    5 2
  12    4    6 am
  13    6    8 1
  14    6   31 1
  15    7   32 1
  16    7   33 1
  17    7   34 1
  18    8    9 1
  19    8   10 1
  20    8   35 1
  21    9   17 1
  22    9   36 1
  23    9   37 1
  24   10   11 ar
  25   10   15 ar
  26   11   12 ar
  27   11   38 1
  28   12   13 ar
  29   12   39 1
  30   13   14 ar
  31   13   40 1
  32   14   15 ar
  33   14   16 1
  34   16   41 1
  35   16   42 1
  36   16   43 1
  37   17   18 1
  38   18   19 1
  39   18   20 1
  40   18   21 1
  41   19   44 1
  42   19   45 1
  43   19   46 1
  44   20   47 1
  45   20   48 1
  46   20   49 1
  47   21   22 1
  48   21   24 1
  49   21   23 1
  50   22   50 1
  51   22   51 1
  52   22   52 1
  53   23   53 1
  54   23   54 1
  55   23   55 1
  56   24   56 1
  57   24   57 1
  58   24   58 1

#	End of record

