#	Name: ASD01881184
#	Creating user name:	WinNT
#	Creation time:	15. 06. 2019 19:42

#	Modifying user name:	WinNT
#	Modification time:	15. 06. 2019 19:42

#	Program:	/corina/corina34_cracker 3.40 0067  02.08.2006

@<TRIPOS>MOLECULE
ASD01881184
  39   41    0    0    0
SMALL
NO_CHARGES


@<TRIPOS>ATOM
   1 N1            -0.0159     1.3190     0.0093 N.ar    
   2 C2             0.0021    -0.0041     0.0020 C.ar    
   3 N3             1.1382    -0.6822    -0.0120 N.ar    
   4 C4             2.3018    -0.0527    -0.0198 C.ar    
   5 C5             2.3204     1.3331    -0.0129 C.ar    
   6 C6             1.1117     2.0110     0.0022 C.ar    
   7 C7             3.6258     2.0860    -0.0209 C.3     
   8 O8             4.0263     2.3307    -1.3706 O.3     
   9 C9             5.1902     3.0038    -1.5555 C.ar    
  10 C10            5.6386     3.2756    -2.8448 C.ar    
  11 C11            6.8154     3.9567    -3.0316 C.ar    
  12 C12            7.5700     4.3812    -1.9325 C.ar    
  13 C13            7.1152     4.1057    -0.6385 C.ar    
  14 C14            5.9294     3.4256    -0.4577 C.ar    
  15 C15            7.5664     4.4031    -4.2612 C.3     
  16 N16            8.7686     5.0924    -3.7789 N.am    
  17 C17            8.7662     5.0772    -2.4349 C.2     
  18 O18            9.6293     5.5688    -1.7335 O.2     
  19 Cl19           8.0389     4.6244     0.7368 Cl      
  20 C20            9.4393     7.1579    -4.9038 C.3     
  21 C21            9.8014     5.6980    -4.6232 C.3     
  22 O22           -1.1713    -0.6808     0.0096 O.3     
  23 C23           -1.0972    -2.1079     0.0012 C.3     
  24 H24            3.2258    -0.6118    -0.0309 H       
  25 H25            1.0905     3.0908     0.0075 H       
  26 H26            3.5005     3.0358     0.4989 H       
  27 H27            4.3897     1.4940     0.4831 H       
  28 H28            5.0612     2.9505    -3.6976 H       
  29 H29            5.5780     3.2132     0.5412 H       
  30 H30            7.8463     3.5389    -4.8637 H       
  31 H31            6.9525     5.0866    -4.8478 H       
  32 H32           10.2077     7.6085    -5.5321 H       
  33 H33            8.4786     7.2018    -5.4169 H       
  34 H34            9.3738     7.7034    -3.9624 H       
  35 H35           10.7620     5.6541    -4.1102 H       
  36 H36            9.8669     5.1526    -5.5646 H       
  37 H37           -0.5738    -2.4393    -0.8956 H       
  38 H38           -0.5568    -2.4488     0.8843 H       
  39 H39           -2.1046    -2.5241     0.0086 H       
@<TRIPOS>BOND
   1    1    2 ar
   2    1    6 ar
   3    2    3 ar
   4    2   22 1
   5    3    4 ar
   6    4    5 ar
   7    4   24 1
   8    5    6 ar
   9    5    7 1
  10    6   25 1
  11    7    8 1
  12    7   26 1
  13    7   27 1
  14    8    9 1
  15    9   10 ar
  16    9   14 ar
  17   10   11 ar
  18   10   28 1
  19   11   12 ar
  20   11   15 1
  21   12   13 ar
  22   12   17 1
  23   13   14 ar
  24   13   19 1
  25   14   29 1
  26   15   16 1
  27   15   30 1
  28   15   31 1
  29   16   17 am
  30   16   21 1
  31   17   18 2
  32   20   21 1
  33   20   32 1
  34   20   33 1
  35   20   34 1
  36   21   35 1
  37   21   36 1
  38   22   23 1
  39   23   37 1
  40   23   38 1
  41   23   39 1

#	End of record

