#	Name: ASD09080113
#	Creating user name:	WinNT
#	Creation time:	15. 06. 2019 21:20

#	Modifying user name:	WinNT
#	Modification time:	15. 06. 2019 21:20

#	Program:	/corina/corina34_cracker 3.40 0067  02.08.2006

@<TRIPOS>MOLECULE
ASD09080113
  48   48    0    0    0
SMALL
NO_CHARGES


@<TRIPOS>ATOM
   1 C1            -0.0167     1.3799     0.0096 C.ar    
   2 C2             0.0021    -0.0041     0.0020 C.ar    
   3 C3             1.2064    -0.6807    -0.0126 C.ar    
   4 C4             2.4033     0.0323    -0.0202 C.ar    
   5 C5             2.3792     1.4253    -0.0130 C.ar    
   6 C6             1.1698     2.0928     0.0021 C.ar    
   7 Cl7            1.1380     3.8285     0.0112 Cl      
   8 Cl8           -1.4902    -0.8910     0.0115 Cl      
   9 C9             3.6997    -0.6896    -0.0355 C.ar    
  10 C10            4.8969     0.0232    -0.0430 C.ar    
  11 C11            3.7242    -2.0828    -0.0365 C.ar    
  12 C12            4.9328    -2.7491    -0.0508 C.ar    
  13 C13            6.1183    -2.0365    -0.0640 C.ar    
  14 C14            6.0998    -0.6534    -0.0573 C.ar    
  15 C15            7.4348    -2.7697    -0.0795 C.3     
  16 C16            7.8638    -3.0170    -1.5272 C.3     
  17 C17            9.2361    -3.6395    -1.5451 C.2     
  18 N18            6.9087    -3.9218    -2.1717 N.am    
  19 C19            9.4363    -4.7906    -2.1822 C.2     
  20 C20            6.7592    -3.9011    -3.5110 C.2     
  21 O21            7.4154    -3.1335    -4.1826 O.2     
  22 C22            5.7767    -4.8318    -4.1740 C.3     
  23 O23            5.8008    -4.6217    -5.5873 O.3     
  24 C24            4.9001    -5.4593    -6.3148 C.3     
  25 C25           10.7745    -5.3976    -2.1997 C.2     
  26 O26           11.6983    -4.8484    -1.6323 O.2     
  27 O27           10.9773    -6.5636    -2.8450 O.3     
  28 H28           -0.9602     1.9054     0.0169 H       
  29 H29            1.2200    -1.7606    -0.0178 H       
  30 H30            3.3044     1.9824    -0.0184 H       
  31 H31            4.8836     1.1031    -0.0382 H       
  32 H32            2.7993    -2.6402    -0.0258 H       
  33 H33            4.9530    -3.8289    -0.0512 H       
  34 H34            7.0283    -0.1019    -0.0680 H       
  35 H35            8.1911    -2.1691     0.4259 H       
  36 H36            7.3252    -3.7243     0.4351 H       
  37 H37            7.8874    -2.0698    -2.0660 H       
  38 H38           10.0570    -3.1514    -1.0409 H       
  39 H39            6.3839    -4.5357    -1.6346 H       
  40 H40            8.6154    -5.2787    -2.6864 H       
  41 H41            6.0499    -5.8641    -3.9555 H       
  42 H42            4.7746    -4.6329    -3.7941 H       
  43 H43            5.1551    -6.5046    -6.1407 H       
  44 H44            3.8798    -5.2734    -5.9793 H       
  45 H45            4.9784    -5.2387    -7.3794 H       
  46 H46           11.8745    -6.9240    -2.8289 H       
  47 Cl47          16.8745     8.8285     5.4351 Cl      
  48 H48           16.8745    10.1985     5.4351 H       
@<TRIPOS>BOND
   1    1    2 ar
   2    1    6 ar
   3    1   28 1
   4    2    3 ar
   5    2    8 1
   6    3    4 ar
   7    3   29 1
   8    4    5 ar
   9    4    9 1
  10    5    6 ar
  11    5   30 1
  12    6    7 1
  13    9   10 ar
  14    9   11 ar
  15   10   14 ar
  16   10   31 1
  17   11   12 ar
  18   11   32 1
  19   12   13 ar
  20   12   33 1
  21   13   14 ar
  22   13   15 1
  23   14   34 1
  24   15   16 1
  25   15   35 1
  26   15   36 1
  27   16   17 1
  28   16   18 1
  29   16   37 1
  30   17   19 2
  31   17   38 1
  32   18   20 am
  33   18   39 1
  34   19   25 1
  35   19   40 1
  36   20   21 2
  37   20   22 1
  38   22   23 1
  39   22   41 1
  40   22   42 1
  41   23   24 1
  42   24   43 1
  43   24   44 1
  44   24   45 1
  45   25   26 2
  46   25   27 1
  47   27   46 1
  48   47   48 1

#	End of record

