#	Name: ASD01200175
#	Creating user name:	WinNT
#	Creation time:	15. 06. 2019 19:08

#	Modifying user name:	WinNT
#	Modification time:	15. 06. 2019 19:08

#	Program:	/corina/corina34_cracker 3.40 0067  02.08.2006

@<TRIPOS>MOLECULE
ASD01200175
  49   50    0    0    0
SMALL
NO_CHARGES


@<TRIPOS>ATOM
   1 N1             1.4992     1.2946     2.3455 N.am    
   2 C2             1.7234    -0.0280     2.4755 C.2     
   3 O3             2.5134    -0.5857     1.7392 O.2     
   4 N4             1.0717    -0.7321     3.4220 N.am    
   5 C5             1.3154    -2.1698     3.5634 C.3     
   6 C6             2.1510     1.9988     1.3989 C.2     
   7 O7             2.9389     1.4424     0.6645 O.2     
   8 C8             1.9002     3.4776     1.2535 C.3     
   9 S9             2.9189     4.1338    -0.0964 S.3     
  10 N10            3.6528     6.6882     0.3749 N.am    
  11 C11            2.5067     5.9003    -0.0972 C.3     
  12 C12            2.2350     6.3715    -1.5069 C.2     
  13 C13            3.1312     7.3139    -1.7816 C.2     
  14 C14            4.0102     7.5155    -0.6253 C.2     
  15 O15            4.9270     8.3131    -0.5768 O.2     
  16 C16            3.2289     8.0631    -3.0855 C.3     
  17 C17            1.1532     5.8680    -2.4274 C.3     
  18 C18            4.2861     6.5954     1.6927 C.3     
  19 C19            5.3901     5.5706     1.6485 C.ar    
  20 C20            6.6754     5.9548     1.3137 C.ar    
  21 C21            7.6892     5.0173     1.2725 C.ar    
  22 C22            7.4167     3.6894     1.5674 C.ar    
  23 C23            6.1263     3.3064     1.9030 C.ar    
  24 C24            5.1171     4.2488     1.9483 C.ar    
  25 O25            8.4123     2.7651     1.5271 O.3     
  26 C26            8.0589     1.4169     1.8424 C.3     
  27 H27            0.8658     1.7390     2.9305 H       
  28 H28            0.4412    -0.2870     4.0096 H       
  29 H29            1.0557    -2.6755     2.6334 H       
  30 H30            2.3686    -2.3394     3.7874 H       
  31 H31            0.7033    -2.5640     4.3745 H       
  32 H32            0.8471     3.6473     1.0295 H       
  33 H33            2.1600     3.9834     2.1835 H       
  34 H34            1.6383     6.0836     0.5356 H       
  35 H35            2.6109     8.9597    -3.0365 H       
  36 H36            4.2661     8.3461    -3.2651 H       
  37 H37            2.8803     7.4255    -3.8979 H       
  38 H38            0.2396     6.4388    -2.2609 H       
  39 H39            1.4724     5.9871    -3.4627 H       
  40 H40            0.9649     4.8137    -2.2242 H       
  41 H41            4.7016     7.5656     1.9652 H       
  42 H42            3.5432     6.2975     2.4326 H       
  43 H43            6.8869     6.9887     1.0839 H       
  44 H44            8.6929     5.3179     1.0106 H       
  45 H45            5.9117     2.2732     2.1330 H       
  46 H46            4.1133     3.9520     2.2142 H       
  47 H47            7.6597     1.3734     2.8557 H       
  48 H48            7.3041     1.0651     1.1391 H       
  49 H49            8.9434     0.7837     1.7729 H       
@<TRIPOS>BOND
   1    1    2 am
   2    1    6 am
   3    1   27 1
   4    2    3 2
   5    2    4 am
   6    4    5 1
   7    4   28 1
   8    5   29 1
   9    5   30 1
  10    5   31 1
  11    6    7 2
  12    6    8 1
  13    8    9 1
  14    8   32 1
  15    8   33 1
  16    9   11 1
  17   10   11 1
  18   10   14 am
  19   10   18 1
  20   11   12 1
  21   11   34 1
  22   12   13 2
  23   12   17 1
  24   13   14 1
  25   13   16 1
  26   14   15 2
  27   16   35 1
  28   16   36 1
  29   16   37 1
  30   17   38 1
  31   17   39 1
  32   17   40 1
  33   18   19 1
  34   18   41 1
  35   18   42 1
  36   19   20 ar
  37   19   24 ar
  38   20   21 ar
  39   20   43 1
  40   21   22 ar
  41   21   44 1
  42   22   23 ar
  43   22   25 1
  44   23   24 ar
  45   23   45 1
  46   24   46 1
  47   25   26 1
  48   26   47 1
  49   26   48 1
  50   26   49 1

#	End of record

