#	Name: ASD00431435
#	Creating user name:	WinNT
#	Creation time:	15. 06. 2019 18:35

#	Modifying user name:	WinNT
#	Modification time:	15. 06. 2019 18:35

#	Program:	/corina/corina34_cracker 3.40 0067  02.08.2006

@<TRIPOS>MOLECULE
ASD00431435
  59   60    0    0    0
SMALL
NO_CHARGES


@<TRIPOS>ATOM
   1 C1            -0.0092     1.3351    -0.0188 C.2     
   2 N2             0.0377    -0.0118    -0.0303 N.am    
   3 O3             1.0197     1.9783     0.0456 O.2     
   4 O4            -1.1957     1.9680    -0.0843 O.3     
   5 C5             1.3291    -0.7004     0.0349 C.3     
   6 C6             1.1346    -2.0793     0.6110 C.2     
   7 O7             0.0269    -2.4501     0.9351 O.2     
   8 C8             1.9181    -0.8141    -1.3726 C.3     
   9 O9             2.1868    -2.8959     0.7652 O.3     
  10 N10            1.9673    -3.9977     1.2357 N.2     
  11 C11            2.9497    -4.8404     1.4114 C.2     
  12 S12            1.1127    -6.7914     2.4761 S.3     
  13 C13            1.8324    -8.2696     2.9443 C.2     
  14 N14            3.1123    -8.2371     2.7266 N.2     
  15 C15            3.6048    -7.1342     2.2126 C.2     
  16 C16            2.6848    -6.1702     1.9794 C.2     
  17 O17            1.1636    -9.3236     3.4680 O.3     
  18 C18            1.2598   -11.5431     4.3292 C.ar    
  19 C19            1.8472   -10.4840     3.6558 C.ar    
  20 C20            3.1458   -10.6228     3.1736 C.ar    
  21 C21            3.8035   -11.8216     3.3872 C.ar    
  22 C22            3.1510   -12.8391     4.0706 C.ar    
  23 N23            1.9168   -12.6721     4.5148 N.ar    
  24 O24            3.7874   -14.0189     4.2849 O.3     
  25 C25            3.0640   -15.0268     4.9939 C.3     
  26 C26            2.2879   -15.8925     3.9993 C.3     
  27 C27            4.0442   -15.9032     5.7762 C.3     
  28 N28            4.2409    -4.4811     1.0625 N.pl3   
  29 C29           -1.1703     3.4197    -0.0673 C.3     
  30 C30           -0.3657     3.9297    -1.2646 C.3     
  31 C31           -2.6010     3.9558    -0.1488 C.3     
  32 C32           -0.5175     3.9032     1.2292 C.3     
  33 H33           -0.7837    -0.5252    -0.0817 H       
  34 H34            2.0111    -0.1343     0.6695 H       
  35 H35            2.0587     0.1832    -1.7893 H       
  36 H36            2.8789    -1.3264    -1.3241 H       
  37 H37            1.2361    -1.3801    -2.0072 H       
  38 H38            4.6549    -7.0072     1.9944 H       
  39 H39            0.2544   -11.4417     4.7103 H       
  40 H40            3.6285    -9.8142     2.6449 H       
  41 H41            4.8114   -11.9641     3.0265 H       
  42 H42            2.3667   -14.5546     5.6860 H       
  43 H43            1.7360   -16.6613     4.5402 H       
  44 H44            1.5895   -15.2682     3.4420 H       
  45 H45            2.9851   -16.3647     3.3073 H       
  46 H46            4.5972   -15.2865     6.4848 H       
  47 H47            3.4924   -16.6720     6.3171 H       
  48 H48            4.7415   -16.3754     5.0842 H       
  49 H49            4.4156    -3.6037     0.6877 H       
  50 H50            4.9704    -5.1069     1.1929 H       
  51 H51           -0.8307     3.5853    -2.1882 H       
  52 H52           -0.3466     5.0195    -1.2518 H       
  53 H53            0.6536     3.5478    -1.2066 H       
  54 H54           -3.1743     3.5924     0.7041 H       
  55 H55           -2.5820     5.0455    -0.1360 H       
  56 H56           -3.0661     3.6113    -1.0724 H       
  57 H57            0.5017     3.5213     1.2872 H       
  58 H58           -0.4985     4.9930     1.2419 H       
  59 H59           -1.0908     3.5398     2.0821 H       
@<TRIPOS>BOND
   1    1    2 am
   2    1    3 2
   3    1    4 1
   4    2    5 1
   5    2   33 1
   6    4   29 1
   7    5    6 1
   8    5    8 1
   9    5   34 1
  10    6    7 2
  11    6    9 1
  12    8   35 1
  13    8   36 1
  14    8   37 1
  15    9   10 1
  16   10   11 2
  17   11   16 1
  18   11   28 1
  19   12   13 1
  20   12   16 1
  21   13   14 2
  22   13   17 1
  23   14   15 1
  24   15   16 2
  25   15   38 1
  26   17   19 1
  27   18   19 ar
  28   18   23 ar
  29   18   39 1
  30   19   20 ar
  31   20   21 ar
  32   20   40 1
  33   21   22 ar
  34   21   41 1
  35   22   23 ar
  36   22   24 1
  37   24   25 1
  38   25   26 1
  39   25   27 1
  40   25   42 1
  41   26   43 1
  42   26   44 1
  43   26   45 1
  44   27   46 1
  45   27   47 1
  46   27   48 1
  47   28   49 1
  48   28   50 1
  49   29   30 1
  50   29   32 1
  51   29   31 1
  52   30   51 1
  53   30   52 1
  54   30   53 1
  55   31   54 1
  56   31   55 1
  57   31   56 1
  58   32   57 1
  59   32   58 1
  60   32   59 1

#	End of record

