#	Name: ASD01410786
#	Creating user name:	WinNT
#	Creation time:	15. 06. 2019 19:18

#	Modifying user name:	WinNT
#	Modification time:	15. 06. 2019 19:18

#	Program:	/corina/corina34_cracker 3.40 0067  02.08.2006

@<TRIPOS>MOLECULE
ASD01410786
  52   55    0    0    0
SMALL
NO_CHARGES


@<TRIPOS>ATOM
   1 N1            -0.0158     1.3171     0.0093 N.ar    
   2 C2             0.0021    -0.0041     0.0020 C.ar    
   3 C3             1.2097    -0.7206    -0.0134 C.ar    
   4 C4             2.3975    -0.0490    -0.0211 C.ar    
   5 C5             2.3690     1.3612    -0.0132 C.ar    
   6 C6             3.5555     2.1102    -0.0209 C.ar    
   7 C7             3.4995     3.4701    -0.0136 C.ar    
   8 C8             2.2708     4.1363     0.0016 C.ar    
   9 C9             1.0876     3.4316     0.0100 C.ar    
  10 C10            1.1165     2.0262     0.0023 C.ar    
  11 O11            2.2435     5.4947     0.0087 O.3     
  12 C12            3.5033     6.1690    -0.0001 C.3     
  13 C13            3.2724     7.6814     0.0096 C.3     
  14 N14            2.6321     8.0709     1.2731 N.3     
  15 C15            2.6088     9.5331     1.4231 C.3     
  16 C16            1.8818     9.8961     2.7207 C.3     
  17 O17            2.5280     9.2491     3.8203 O.3     
  18 C18            2.5680     7.8240     3.7072 C.3     
  19 C19            3.3020     7.4401     2.4196 C.3     
  20 S20           -1.4434    -2.4979     0.0036 S.3     
  21 C21           -1.2770    -0.7440     0.0107 C.2     
  22 N22           -2.4624    -0.2042     0.0257 N.2     
  23 C23           -3.4894    -1.0189     0.0322 C.2     
  24 C24           -3.1975    -2.3260     0.0226 C.2     
  25 C25           -4.9099    -0.5161     0.0499 C.3     
  26 C26           -5.4480    -0.4573    -1.3811 C.3     
  27 C27           -5.7761    -1.4639     0.8819 C.3     
  28 Cl28          -0.4303     4.2738     0.0300 Cl      
  29 Cl29           3.9057    -0.9084    -0.0395 Cl      
  30 H30            1.1983    -1.8005    -0.0187 H       
  31 H31            4.5118     1.6084    -0.0323 H       
  32 H32            4.4159     4.0416    -0.0192 H       
  33 H33            4.0747     5.8830     0.8829 H       
  34 H34            4.0575     5.8918    -0.8969 H       
  35 H35            4.2287     8.1956    -0.0866 H       
  36 H36            2.6268     7.9558    -0.8246 H       
  37 H37            3.6304     9.9115     1.4603 H       
  38 H38            2.0859     9.9777     0.5764 H       
  39 H39            1.9120    10.9760     2.8650 H       
  40 H40            0.8450     9.5649     2.6618 H       
  41 H41            3.0945     7.4054     4.5649 H       
  42 H42            1.5512     7.4326     3.6770 H       
  43 H43            3.2851     6.3568     2.3002 H       
  44 H44            4.3347     7.7850     2.4727 H       
  45 H45           -3.9132    -3.1349     0.0256 H       
  46 H46           -4.9369     0.4810     0.4895 H       
  47 H47           -5.4210    -1.4544    -1.8207 H       
  48 H48           -6.4754    -0.0936    -1.3683 H       
  49 H49           -4.8309     0.2179    -1.9739 H       
  50 H50           -5.3928    -1.5057     1.9015 H       
  51 H51           -6.8036    -1.1002     0.8947 H       
  52 H52           -5.7491    -2.4609     0.4424 H       
@<TRIPOS>BOND
   1    1    2 ar
   2    1   10 ar
   3    2    3 ar
   4    2   21 1
   5    3    4 ar
   6    3   30 1
   7    4    5 ar
   8    4   29 1
   9    5    6 ar
  10    5   10 ar
  11    6    7 ar
  12    6   31 1
  13    7    8 ar
  14    7   32 1
  15    8    9 ar
  16    8   11 1
  17    9   10 ar
  18    9   28 1
  19   11   12 1
  20   12   13 1
  21   12   33 1
  22   12   34 1
  23   13   14 1
  24   13   35 1
  25   13   36 1
  26   14   15 1
  27   14   19 1
  28   15   16 1
  29   15   37 1
  30   15   38 1
  31   16   17 1
  32   16   39 1
  33   16   40 1
  34   17   18 1
  35   18   19 1
  36   18   41 1
  37   18   42 1
  38   19   43 1
  39   19   44 1
  40   20   21 1
  41   20   24 1
  42   21   22 2
  43   22   23 1
  44   23   24 2
  45   23   25 1
  46   24   45 1
  47   25   26 1
  48   25   27 1
  49   25   46 1
  50   26   47 1
  51   26   48 1
  52   26   49 1
  53   27   50 1
  54   27   51 1
  55   27   52 1

#	End of record

