#	Name: ASD01940400
#	Creating user name:	WinNT
#	Creation time:	15. 06. 2019 20:12

#	Modifying user name:	WinNT
#	Modification time:	15. 06. 2019 20:12

#	Program:	/corina/corina34_cracker 3.40 0067  02.08.2006

@<TRIPOS>MOLECULE
ASD01940400
  33   32    0    0    0
SMALL
NO_CHARGES


@<TRIPOS>ATOM
   1 C1            -0.0187     1.5258     0.0104 C.3     
   2 C2             0.0021    -0.0041     0.0020 C.3     
   3 C3             0.7182    -0.4975    -1.2568 C.3     
   4 O4             1.3220     2.0204     0.0003 O.3     
   5 C5             0.7421    -0.5109     1.2415 C.3     
   6 O6            -1.3386    -0.4987     0.0122 O.3     
   7 N7            -1.4312    -1.9116     0.0055 N.am    
   8 C8            -2.6399    -2.5078     0.0138 C.2     
   9 O9            -3.6502    -1.8327     0.0271 O.2     
  10 O10           -2.7280    -3.8512     0.0074 O.3     
  11 C11           -4.0621    -4.4244     0.0171 C.3     
  12 C12           -4.8272    -3.9564    -1.2224 C.3     
  13 C13           -3.9613    -5.9511     0.0079 C.3     
  14 C14           -4.8034    -3.9698     1.2759 C.3     
  15 H15           -0.5459     1.8868    -0.8726 H       
  16 H16           -0.5289     1.8773     0.9072 H       
  17 H17            1.7408    -0.1202    -1.2645 H       
  18 H18            0.7330    -1.5874    -1.2628 H       
  19 H19            0.1910    -0.1364    -2.1398 H       
  20 H20            1.3852     2.9853     0.0049 H       
  21 H21            0.2319    -0.1594     2.1383 H       
  22 H22            0.7568    -1.6008     1.2356 H       
  23 H23            1.7647    -0.1336     1.2338 H       
  24 H24           -0.6247    -2.4505    -0.0051 H       
  25 H25           -4.2991    -4.2802    -2.1192 H       
  26 H26           -5.8287    -4.3867    -1.2152 H       
  27 H27           -4.8990    -2.8688    -1.2159 H       
  28 H28           -3.4162    -6.2845     0.8910 H       
  29 H29           -4.9627    -6.3813     0.0152 H       
  30 H30           -3.4332    -6.2749    -0.8889 H       
  31 H31           -4.8752    -2.8822     1.2824 H       
  32 H32           -5.8048    -4.4001     1.2832 H       
  33 H33           -4.2583    -4.3032     2.1590 H       
@<TRIPOS>BOND
   1    1    2 1
   2    1    4 1
   3    1   15 1
   4    1   16 1
   5    2    3 1
   6    2    5 1
   7    2    6 1
   8    3   17 1
   9    3   18 1
  10    3   19 1
  11    4   20 1
  12    5   21 1
  13    5   22 1
  14    5   23 1
  15    6    7 1
  16    7    8 am
  17    7   24 1
  18    8    9 2
  19    8   10 1
  20   10   11 1
  21   11   12 1
  22   11   13 1
  23   11   14 1
  24   12   25 1
  25   12   26 1
  26   12   27 1
  27   13   28 1
  28   13   29 1
  29   13   30 1
  30   14   31 1
  31   14   32 1
  32   14   33 1

#	End of record

