#	Name: ASD01901089
#	Creating user name:	WinNT
#	Creation time:	15. 06. 2019 19:53

#	Modifying user name:	WinNT
#	Modification time:	15. 06. 2019 19:53

#	Program:	/corina/corina34_cracker 3.40 0067  02.08.2006

@<TRIPOS>MOLECULE
ASD01901089
  42   44    0    0    0
SMALL
NO_CHARGES


@<TRIPOS>ATOM
   1 C1            -0.0184     1.5028     0.0103 C.2     
   2 C2             0.0021    -0.0041     0.0020 C.3     
   3 O3            -1.3386    -0.4987     0.0122 O.3     
   4 C4            -1.4983    -1.8484     0.0064 C.ar    
   5 C5            -2.7733    -2.3978     0.0157 C.ar    
   6 C6            -2.9327    -3.7705     0.0099 C.ar    
   7 C7            -1.8235    -4.5962    -0.0051 C.ar    
   8 C8            -0.5531    -4.0513    -0.0139 C.ar    
   9 C9            -0.3882    -2.6792    -0.0144 C.ar    
  10 Br10          -4.2902    -1.2689     0.0368 Br      
  11 C11            2.4697     1.5816    -0.0130 C.ar    
  12 C12            1.2427     2.2539     0.0023 C.ar    
  13 C13            1.2360     3.6600     0.0094 C.ar    
  14 C14            2.4352     4.3178     0.0011 C.ar    
  15 C15            3.6197     3.5821    -0.0141 C.ar    
  16 N16            3.5998     2.2555    -0.0211 N.ar    
  17 N17            4.8336     4.2453    -0.0226 N.pl3   
  18 C18            4.8682     5.7099    -0.0156 C.3     
  19 C19            6.3223     6.1858    -0.0273 C.3     
  20 C20            6.3869     8.4460     1.0705 C.2     
  21 N21            6.4122     9.6908     0.6798 N.2     
  22 C22            6.3994     9.7341    -0.6607 C.2     
  23 C23            6.3649     8.4679    -1.1181 C.2     
  24 N24            6.3569     7.6504    -0.0203 N.pl3   
  25 O25           -1.0770     2.0949     0.0185 O.2     
  26 H26            0.5123    -0.3556    -0.8948 H       
  27 H27            0.5293    -0.3651     0.8851 H       
  28 H28           -3.9241    -4.1987     0.0174 H       
  29 H29           -1.9500    -5.6688    -0.0096 H       
  30 H30            0.3114    -4.6985    -0.0252 H       
  31 H31            0.6046    -2.2543    -0.0264 H       
  32 H32            2.4894     0.5018    -0.0141 H       
  33 H33            0.3054     4.2080     0.0209 H       
  34 H34            2.4645     5.3974     0.0059 H       
  35 H35            5.6619     3.7407    -0.0332 H       
  36 H36            4.3545     6.0897    -0.8987 H       
  37 H37            4.3718     6.0808     0.8812 H       
  38 H38            6.8360     5.8060     0.8558 H       
  39 H39            6.8187     5.8149    -0.9241 H       
  40 H40            6.3934     8.1079     2.0962 H       
  41 H41            6.4140    10.6277    -1.2671 H       
  42 H42            6.3466     8.1572    -2.1523 H       
@<TRIPOS>BOND
   1    1    2 1
   2    1   12 1
   3    1   25 2
   4    2    3 1
   5    2   26 1
   6    2   27 1
   7    3    4 1
   8    4    5 ar
   9    4    9 ar
  10    5    6 ar
  11    5   10 1
  12    6    7 ar
  13    6   28 1
  14    7    8 ar
  15    7   29 1
  16    8    9 ar
  17    8   30 1
  18    9   31 1
  19   11   12 ar
  20   11   16 ar
  21   11   32 1
  22   12   13 ar
  23   13   14 ar
  24   13   33 1
  25   14   15 ar
  26   14   34 1
  27   15   16 ar
  28   15   17 1
  29   17   18 1
  30   17   35 1
  31   18   19 1
  32   18   36 1
  33   18   37 1
  34   19   24 1
  35   19   38 1
  36   19   39 1
  37   20   21 2
  38   20   24 1
  39   20   40 1
  40   21   22 1
  41   22   23 2
  42   22   41 1
  43   23   24 1
  44   23   42 1

#	End of record

