#	Name: ASD01882663
#	Creating user name:	WinNT
#	Creation time:	15. 06. 2019 19:45

#	Modifying user name:	WinNT
#	Modification time:	15. 06. 2019 19:45

#	Program:	/corina/corina34_cracker 3.40 0067  02.08.2006

@<TRIPOS>MOLECULE
ASD01882663
  55   60    0    0    0
SMALL
NO_CHARGES


@<TRIPOS>ATOM
   1 O1             0.2617     1.2811    -0.1578 O.3     
   2 C2             0.1657    -0.1445    -0.1014 C.3     
   3 C3             1.1688    -0.6606     0.9368 C.3     
   4 O4             2.4809    -0.2485     0.5381 O.3     
   5 C5             2.6226     1.0480     0.1489 C.ar    
   6 C6             1.5147     1.8113    -0.2009 C.ar    
   7 C7             3.8894     1.6102     0.1029 C.ar    
   8 C8             4.0496     2.9251    -0.2925 C.ar    
   9 C9             2.9484     3.6828    -0.6436 C.ar    
  10 C10            1.6826     3.1290    -0.5986 C.ar    
  11 N11           -1.8587    -0.4535    -2.0493 N.pl3   
  12 C12           -2.2519     0.0021    -0.7089 C.3     
  13 C13           -1.2501    -0.5480     0.3117 C.3     
  14 C14            0.4951    -0.7383    -1.4709 C.3     
  15 C15           -0.4886    -0.1924    -2.5110 C.3     
  16 C16           -4.1188    -1.2355    -4.8360 C.2     
  17 C17           -3.2018    -0.5423    -4.0277 C.2     
  18 C18           -2.7670    -1.1203    -2.8660 C.2     
  19 C19           -3.2455    -2.3978    -2.5017 C.2     
  20 C20           -4.1245    -3.0446    -3.2917 C.2     
  21 N21           -4.5642    -2.4770    -4.4520 N.pl3   
  22 N22           -5.4827    -1.9287    -6.3218 N.2     
  23 N23           -4.7164    -0.9521    -5.9833 N.2     
  24 C24           -5.4285    -2.8800    -5.4273 C.2     
  25 C25           -2.7032     0.8202    -4.4353 C.3     
  26 F26           -1.5032     0.6856    -5.1416 F       
  27 F27           -3.6564     1.4412    -5.2495 F       
  28 F28           -2.4873     1.5986    -3.2931 F       
  29 C29           -6.1840    -4.1834    -5.4656 C.3     
  30 C30           -7.5325    -4.0121    -4.7633 C.3     
  31 C31           -8.5022    -5.1950    -4.7976 C.3     
  32 C32           -7.7795    -4.8357    -3.4977 C.3     
  33 H33            0.9335    -0.2415     1.9151 H       
  34 H34            1.1235    -1.7488     0.9822 H       
  35 H35            4.7516     1.0203     0.3766 H       
  36 H36            5.0372     3.3610    -0.3274 H       
  37 H37            3.0770     4.7095    -0.9531 H       
  38 H38            0.8237     3.7231    -0.8737 H       
  39 H39           -2.2455     1.0916    -0.6767 H       
  40 H40           -3.2508    -0.3667    -0.4759 H       
  41 H41           -1.3238    -1.6350     0.3443 H       
  42 H42           -1.4724    -0.1381     1.2970 H       
  43 H43            1.5115    -0.4628    -1.7519 H       
  44 H44            0.4114    -1.8242    -1.4261 H       
  45 H45           -0.3238    -0.6904    -3.4665 H       
  46 H46           -0.3402     0.8813    -2.6260 H       
  47 H47           -2.9052    -2.8585    -1.5860 H       
  48 H48           -4.4844    -4.0214    -3.0040 H       
  49 H49           -6.3490    -4.4773    -6.5022 H       
  50 H50           -5.6049    -4.9542    -4.9572 H       
  51 H51           -7.9594    -3.0100    -4.8033 H       
  52 H52           -9.5671    -4.9712    -4.8597 H       
  53 H53           -8.1795    -6.0953    -5.3205 H       
  54 H54           -6.9814    -5.4996    -3.1655 H       
  55 H55           -8.3690    -4.3754    -2.7048 H       
@<TRIPOS>BOND
   1    1    2 1
   2    1    6 1
   3    2    3 1
   4    2   13 1
   5    2   14 1
   6    3    4 1
   7    3   33 1
   8    3   34 1
   9    4    5 1
  10    5    6 ar
  11    5    7 ar
  12    6   10 ar
  13    7    8 ar
  14    7   35 1
  15    8    9 ar
  16    8   36 1
  17    9   10 ar
  18    9   37 1
  19   10   38 1
  20   11   12 1
  21   11   15 1
  22   11   18 1
  23   12   13 1
  24   12   39 1
  25   12   40 1
  26   13   41 1
  27   13   42 1
  28   14   15 1
  29   14   43 1
  30   14   44 1
  31   15   45 1
  32   15   46 1
  33   16   17 1
  34   16   21 1
  35   16   23 2
  36   17   18 2
  37   17   25 1
  38   18   19 1
  39   19   20 2
  40   19   47 1
  41   20   21 1
  42   20   48 1
  43   21   24 1
  44   22   23 1
  45   22   24 2
  46   24   29 1
  47   25   26 1
  48   25   27 1
  49   25   28 1
  50   29   30 1
  51   29   49 1
  52   29   50 1
  53   30   31 1
  54   30   32 1
  55   30   51 1
  56   31   32 1
  57   31   52 1
  58   31   53 1
  59   32   54 1
  60   32   55 1

#	End of record

