#	Name: ASD01910269
#	Creating user name:	WinNT
#	Creation time:	15. 06. 2019 19:55

#	Modifying user name:	WinNT
#	Modification time:	15. 06. 2019 19:55

#	Program:	/corina/corina34_cracker 3.40 0067  02.08.2006

@<TRIPOS>MOLECULE
ASD01910269
  42   45    0    0    0
SMALL
NO_CHARGES


@<TRIPOS>ATOM
   1 C1            -0.1120     1.6192     0.1810 C.2     
   2 C2             1.1378     2.4586     0.1139 C.3     
   3 O3             2.0958     1.9646     1.0531 O.3     
   4 C4             3.3039     2.7267     1.1126 C.3     
   5 C5             4.0070     2.6652    -0.2482 C.3     
   6 N6             3.0404     3.0526    -1.2880 N.am    
   7 C7             1.7300     2.3834    -1.2980 C.3     
   8 C8             3.3462     3.9930    -2.2038 C.2     
   9 O9             4.3912     4.6082    -2.1176 O.2     
  10 O10           -0.1705     0.2846     0.2265 O.3     
  11 N11           -1.3265    -0.0792     0.2758 N.2     
  12 C12           -2.1243     0.9570     0.2678 C.2     
  13 N13           -1.3448     2.0606     0.2115 N.2     
  14 C14            2.4116     4.2762    -3.3122 C.ar    
  15 C15            2.2153     5.5893    -3.7451 C.ar    
  16 C16            1.3420     5.8479    -4.7797 C.ar    
  17 C17            0.6591     4.8071    -5.3904 C.ar    
  18 C18            0.8499     3.5015    -4.9641 C.ar    
  19 C19            1.7255     3.2311    -3.9345 C.ar    
  20 F20           -0.1957     5.0661    -6.4040 F       
  21 C21           -3.6071     0.9275     0.3167 C.ar    
  22 C22           -4.2800    -0.2912     0.3788 C.ar    
  23 C23           -5.6586    -0.3141     0.4246 C.ar    
  24 C24           -6.3741     0.8724     0.4086 C.ar    
  25 C25           -5.7090     2.0864     0.3469 C.ar    
  26 C26           -4.3304     2.1186     0.3065 C.ar    
  27 F27           -7.7242     0.8455     0.4527 F       
  28 H28            0.8943     3.4939     0.3527 H       
  29 H29            3.0689     3.7633     1.3544 H       
  30 H30            3.9582     2.3125     1.8796 H       
  31 H31            4.8513     3.3545    -0.2567 H       
  32 H32            4.3590     1.6505    -0.4340 H       
  33 H33            1.8527     1.3402    -1.5895 H       
  34 H34            1.0664     2.8860    -2.0017 H       
  35 H35            2.7465     6.4007    -3.2699 H       
  36 H36            1.1892     6.8631    -5.1151 H       
  37 H37            0.3152     2.6946    -5.4430 H       
  38 H38            1.8737     2.2138    -3.6035 H       
  39 H39           -3.7231    -1.2165     0.3906 H       
  40 H40           -6.1809    -1.2582     0.4727 H       
  41 H41           -6.2705     3.0089     0.3342 H       
  42 H42           -3.8127     3.0653     0.2589 H       
@<TRIPOS>BOND
   1    1   10 1
   2    1    2 1
   3    1   13 2
   4    2    3 1
   5    2    7 1
   6    2   28 1
   7    3    4 1
   8    4    5 1
   9    4   29 1
  10    4   30 1
  11    5    6 1
  12    5   31 1
  13    5   32 1
  14    6    7 1
  15    6    8 am
  16    7   33 1
  17    7   34 1
  18    8    9 2
  19    8   14 1
  20   10   11 1
  21   11   12 2
  22   12   13 1
  23   12   21 1
  24   14   15 ar
  25   14   19 ar
  26   15   16 ar
  27   15   35 1
  28   16   17 ar
  29   16   36 1
  30   17   18 ar
  31   17   20 1
  32   18   19 ar
  33   18   37 1
  34   19   38 1
  35   21   22 ar
  36   21   26 ar
  37   22   23 ar
  38   22   39 1
  39   23   24 ar
  40   23   40 1
  41   24   25 ar
  42   24   27 1
  43   25   26 ar
  44   25   41 1
  45   26   42 1

#	End of record

