#	Name: ASD01200248
#	Creating user name:	WinNT
#	Creation time:	15. 06. 2019 19:08

#	Modifying user name:	WinNT
#	Modification time:	15. 06. 2019 19:08

#	Program:	/corina/corina34_cracker 3.40 0067  02.08.2006

@<TRIPOS>MOLECULE
ASD01200248
  27   29    0    0    0
SMALL
NO_CHARGES


@<TRIPOS>ATOM
   1 C1            -0.0167     1.3794     0.0096 C.ar    
   2 C2             0.0021    -0.0041     0.0020 C.ar    
   3 C3             1.2150    -0.6712     0.0002 C.ar    
   4 C4             2.3961     0.0406     0.0060 C.ar    
   5 C5             2.3931     1.4276    -0.0132 C.ar    
   6 C6             1.1628     2.0914     0.0022 C.ar    
   7 S7             3.9358    -0.8294     0.0704 S.o2    
   8 N8             5.0832     0.3703    -0.1204 N.am    
   9 C9             4.7470     1.6561     0.5265 C.3     
  10 N10            3.5426     2.2029    -0.0848 N.3     
  11 C11            3.2861     3.5697     0.3883 C.3     
  12 O12            4.0743    -1.3270     1.3942 O.2     
  13 O13            3.9969    -1.6480    -1.0895 O.2     
  14 C14            3.0501     3.7659     1.8872 C.3     
  15 C15            4.3616     4.2319     1.2518 C.3     
  16 Cl16          -1.4862    -0.8977    -0.0046 Cl      
  17 H17           -0.9608     1.9039     0.0169 H       
  18 H18            1.2363    -1.7509    -0.0055 H       
  19 H19            1.1368     3.1711     0.0078 H       
  20 H20            5.9055     0.2335    -0.6164 H       
  21 H21            4.5735     1.4938     1.5903 H       
  22 H22            5.5719     2.3563     0.3947 H       
  23 H23            2.7272     4.2072    -0.2969 H       
  24 H24            2.3363     4.5327     2.1882 H       
  25 H25            3.0852     2.8807     2.5223 H       
  26 H26            5.2595     3.6534     1.4689 H       
  27 H27            4.5106     5.3054     1.1348 H       
@<TRIPOS>BOND
   1    1    2 ar
   2    1    6 ar
   3    1   17 1
   4    2    3 ar
   5    2   16 1
   6    3    4 ar
   7    3   18 1
   8    4    5 ar
   9    4    7 1
  10    5    6 ar
  11    5   10 1
  12    6   19 1
  13    7    8 am
  14    7   12 2
  15    7   13 2
  16    8    9 1
  17    8   20 1
  18    9   10 1
  19    9   21 1
  20    9   22 1
  21   10   11 1
  22   11   14 1
  23   11   15 1
  24   11   23 1
  25   14   15 1
  26   14   24 1
  27   14   25 1
  28   15   26 1
  29   15   27 1

#	End of record

