#	Name: ASD01885416
#	Creating user name:	WinNT
#	Creation time:	15. 06. 2019 19:49

#	Modifying user name:	WinNT
#	Modification time:	15. 06. 2019 19:49

#	Program:	/corina/corina34_cracker 3.40 0067  02.08.2006

@<TRIPOS>MOLECULE
ASD01885416
  39   41    0    0    0
SMALL
NO_CHARGES


@<TRIPOS>ATOM
   1 C1            -0.0168     1.3888     0.0097 C.ar    
   2 C2             0.0021    -0.0041     0.0020 C.ar    
   3 N3            -1.1198    -0.7774     0.0188 N.2     
   4 C4            -2.1856    -0.5721    -0.6422 C.2     
   5 C5            -2.3463     0.6236    -1.5432 C.3     
   6 C6            -2.2779     1.8659    -0.6911 C.2     
   7 N7            -1.1828     2.1437     0.0182 N.am    
   8 C8             1.1893     2.0898     0.0019 C.ar    
   9 C9             2.3979     1.4163    -0.0181 C.ar    
  10 C10            2.4169     0.0261    -0.0306 C.ar    
  11 C11            1.2352    -0.6759    -0.0205 C.ar    
  12 C12           -3.3219    -1.5546    -0.5212 C.3     
  13 O13           -3.2272     2.6197    -0.6506 O.2     
  14 N14            3.6013     2.1346    -0.0261 N.pl3   
  15 C15            3.7350     3.4864    -0.0157 C.2     
  16 N16            5.0071     3.7782    -0.0276 N.2     
  17 C17            5.7232     2.6442    -0.0458 C.2     
  18 C18            4.8662     1.6056    -0.0400 C.2     
  19 H19           -1.5440     0.6389    -2.2809 H       
  20 H20           -3.3109     0.5767    -2.0485 H       
  21 H21           -1.2021     2.9325     0.5825 H       
  22 H22            1.1796     3.1697     0.0113 H       
  23 H23            3.3591    -0.5016    -0.0486 H       
  24 H24            1.2552    -1.7556    -0.0305 H       
  25 H25           -3.0403    -2.3531     0.1652 H       
  26 H26           -4.2057    -1.0428    -0.1401 H       
  27 H27           -3.5418    -1.9783    -1.5011 H       
  28 H28            2.9245     4.2000    -0.0007 H       
  29 H29            6.8009     2.5759    -0.0586 H       
  30 H30            5.1253     0.5572    -0.0508 H       
  31 N31           12.7101    12.2720     5.6120 N.ar    
  32 C32           12.7280    10.9525     5.6047 C.ar    
  33 C33           13.9391    10.2794     5.5895 C.ar    
  34 C34           15.1047    11.0352     5.5825 C.ar    
  35 C35           14.9843    12.4156     5.5910 C.ar    
  36 N36           13.7870    12.9703     5.6054 N.ar    
  37 H37           11.8009    10.3986     5.6110 H       
  38 H38           13.9757     9.2000     5.5837 H       
  39 H39           15.8683    13.0360     5.5863 H       
@<TRIPOS>BOND
   1    1    2 ar
   2    1    8 ar
   3    1    7 1
   4    2    3 1
   5    2   11 ar
   6    3    4 2
   7    4    5 1
   8    4   12 1
   9    5    6 1
  10    5   19 1
  11    5   20 1
  12    6    7 am
  13    6   13 2
  14    7   21 1
  15    8    9 ar
  16    8   22 1
  17    9   10 ar
  18    9   14 1
  19   10   11 ar
  20   10   23 1
  21   11   24 1
  22   12   25 1
  23   12   26 1
  24   12   27 1
  25   14   15 1
  26   14   18 1
  27   15   16 2
  28   15   28 1
  29   16   17 1
  30   17   18 2
  31   17   29 1
  32   18   30 1
  33   31   32 ar
  34   31   36 ar
  35   32   33 ar
  36   32   37 1
  37   33   34 ar
  38   33   38 1
  39   34   35 ar
  40   35   36 ar
  41   35   39 1

#	End of record

