#	Name: ASD02508480
#	Creating user name:	WinNT
#	Creation time:	15. 06. 2019 20:24

#	Modifying user name:	WinNT
#	Modification time:	15. 06. 2019 20:24

#	Program:	/corina/corina34_cracker 3.40 0067  02.08.2006

@<TRIPOS>MOLECULE
ASD02508480
  38   40    0    0    0
SMALL
NO_CHARGES


@<TRIPOS>ATOM
   1 N1            -0.0827     1.2184    -0.1240 N.2     
   2 C2             0.0829    -0.0780     0.1787 C.2     
   3 C3             1.4037    -0.3324     0.2321 C.2     
   4 N4             2.0468     0.8467    -0.0469 N.pl3   
   5 C5             1.0855     1.7833    -0.2617 C.2     
   6 C6             3.4296     1.0473    -0.0999 C.ar    
   7 C7             3.9428     2.3331    -0.2372 C.ar    
   8 N8             4.2546     0.0133    -0.0140 N.ar    
   9 C9             5.5613     0.2061    -0.0644 C.ar    
  10 C10            6.0684     1.4844    -0.2066 C.ar    
  11 N11            5.2487     2.5188    -0.2869 N.ar    
  12 S12            2.1611    -1.8822     0.5914 S.o2    
  13 N13            2.2771    -2.7137    -0.8360 N.am    
  14 C14            3.0948    -2.2315    -1.8606 C.ar    
  15 C15            3.9374    -3.0983    -2.5450 C.ar    
  16 C16            4.7442    -2.6183    -3.5579 C.ar    
  17 C17            4.7140    -1.2765    -3.8910 C.ar    
  18 C18            3.8764    -0.4110    -3.2117 C.ar    
  19 C19            3.0631    -0.8852    -2.2014 C.ar    
  20 O20            3.4921    -1.5939     0.9972 O.2     
  21 O21            1.2402    -2.6008     1.4006 O.2     
  22 C22            3.8468     1.0505    -3.5783 C.3     
  23 C23            5.6590    -3.5578    -4.3006 C.3     
  24 H24           -0.7072    -0.7940     0.3503 H       
  25 H25            1.2593     2.8208    -0.5060 H       
  26 H26            3.2736     3.1782    -0.3034 H       
  27 H27            6.2338    -0.6361     0.0059 H       
  28 H28            7.1365     1.6389    -0.2472 H       
  29 H29            1.7773    -3.5356    -0.9605 H       
  30 H30            3.9618    -4.1463    -2.2851 H       
  31 H31            5.3462    -0.9037    -4.6833 H       
  32 H32            2.4089    -0.2088    -1.6715 H       
  33 H33            3.0940     1.2167    -4.3489 H       
  34 H34            3.6003     1.6414    -2.6961 H       
  35 H35            4.8247     1.3505    -3.9550 H       
  36 H36            5.1340    -3.9709    -5.1619 H       
  37 H37            6.5410    -3.0142    -4.6391 H       
  38 H38            5.9636    -4.3679    -3.6380 H       
@<TRIPOS>BOND
   1    1    2 1
   2    1    5 2
   3    2    3 2
   4    2   24 1
   5    3    4 1
   6    3   12 1
   7    4    5 1
   8    4    6 1
   9    5   25 1
  10    6    7 ar
  11    6    8 ar
  12    7   11 ar
  13    7   26 1
  14    8    9 ar
  15    9   10 ar
  16    9   27 1
  17   10   11 ar
  18   10   28 1
  19   12   13 am
  20   12   20 2
  21   12   21 2
  22   13   14 1
  23   13   29 1
  24   14   15 ar
  25   14   19 ar
  26   15   16 ar
  27   15   30 1
  28   16   17 ar
  29   16   23 1
  30   17   18 ar
  31   17   31 1
  32   18   19 ar
  33   18   22 1
  34   19   32 1
  35   22   33 1
  36   22   34 1
  37   22   35 1
  38   23   36 1
  39   23   37 1
  40   23   38 1

#	End of record

