#	Name: ASD06020018
#	Creating user name:	WinNT
#	Creation time:	15. 06. 2019 21:04

#	Modifying user name:	WinNT
#	Modification time:	15. 06. 2019 21:04

#	Program:	/corina/corina34_cracker 3.40 0067  02.08.2006

@<TRIPOS>MOLECULE
ASD06020018
  37   40    0    0    0
SMALL
NO_CHARGES


@<TRIPOS>ATOM
   1 C1             1.2483    -0.6203    -0.0421 C.ar    
   2 N2             0.0500    -0.0775    -0.0222 N.ar    
   3 C3            -0.1019     1.2468     0.0003 C.ar    
   4 C4             1.0300     2.0552     0.0025 C.ar    
   5 C5             2.2837     1.4363    -0.0192 C.ar    
   6 N6             2.3462     0.1095    -0.0409 N.ar    
   7 C7            -1.4583     1.8493     0.0222 C.2     
   8 O8            -1.5861     3.0572     0.0426 O.2     
   9 N9            -2.5481     1.0564     0.0194 N.am    
  10 N10            3.4438     2.1958    -0.0185 N.pl3   
  11 C11            4.6845     1.5713     0.0718 C.ar    
  12 C12            5.8547     2.3292    -0.0403 C.ar    
  13 C13            7.0992     1.6953     0.0514 C.ar    
  14 C14            7.0945     0.2921     0.2570 C.ar    
  15 C15            5.9100    -0.3672     0.3548 C.ar    
  16 N16            4.7506     0.2659     0.2686 N.ar    
  17 S17            6.1267     4.0499    -0.2917 S.3     
  18 C18            7.8661     3.7901    -0.2549 C.2     
  19 N19            8.1266     2.5366    -0.0721 N.2     
  20 C20            8.8831     4.8512    -0.4115 C.ar    
  21 C21           10.2422     4.5327    -0.3658 C.ar    
  22 C22           11.1868     5.5293    -0.5128 C.ar    
  23 C23           10.7898     6.8403    -0.7049 C.ar    
  24 C24            9.4455     7.1633    -0.7508 C.ar    
  25 C25            8.4897     6.1762    -0.6116 C.ar    
  26 Cl26           6.8032     6.5826    -0.6772 Cl      
  27 Cl27          10.7428     2.8881    -0.1242 Cl      
  28 H28            1.3352    -1.6967    -0.0555 H       
  29 H29            0.9430     3.1315     0.0201 H       
  30 H30           -2.4461     0.0919     0.0031 H       
  31 H31           -3.4345     1.4501     0.0337 H       
  32 H32            3.3907     3.1623    -0.0810 H       
  33 H33            8.0259    -0.2490     0.3351 H       
  34 H34            5.9147    -1.4359     0.5110 H       
  35 H35           12.2381     5.2845    -0.4773 H       
  36 H36           11.5329     7.6156    -0.8193 H       
  37 H37            9.1427     8.1891    -0.9008 H       
@<TRIPOS>BOND
   1    1    2 ar
   2    1    6 ar
   3    1   28 1
   4    2    3 ar
   5    3    4 ar
   6    3    7 1
   7    4    5 ar
   8    4   29 1
   9    5    6 ar
  10    5   10 1
  11    7    8 2
  12    7    9 am
  13    9   30 1
  14    9   31 1
  15   10   11 1
  16   10   32 1
  17   11   12 ar
  18   11   16 ar
  19   12   13 ar
  20   12   17 1
  21   13   14 ar
  22   13   19 1
  23   14   15 ar
  24   14   33 1
  25   15   16 ar
  26   15   34 1
  27   17   18 1
  28   18   19 2
  29   18   20 1
  30   20   21 ar
  31   20   25 ar
  32   21   22 ar
  33   21   27 1
  34   22   23 ar
  35   22   35 1
  36   23   24 ar
  37   23   36 1
  38   24   25 ar
  39   24   37 1
  40   25   26 1

#	End of record

