#	Name: ASD05143009
#	Creating user name:	WinNT
#	Creation time:	15. 06. 2019 20:57

#	Modifying user name:	WinNT
#	Modification time:	15. 06. 2019 20:57

#	Program:	/corina/corina34_cracker 3.40 0067  02.08.2006

@<TRIPOS>MOLECULE
ASD05143009
  34   36    0    0    0
SMALL
NO_CHARGES


@<TRIPOS>ATOM
   1 C1             0.1817     1.2634     0.3013 C.2     
   2 O2             0.1689    -0.0790     0.2225 O.3     
   3 C3             1.4222    -0.5676     0.1134 C.ar    
   4 C4             2.2995     0.5341     0.1226 C.ar    
   5 C5             1.4394     1.7191     0.2479 C.2     
   6 C6             1.9313    -1.8572     0.0044 C.ar    
   7 C7             3.3011    -2.0572    -0.0951 C.ar    
   8 C8             4.1768    -0.9523    -0.0856 C.ar    
   9 C9             3.6717     0.3433     0.0239 C.ar    
  10 O10            3.8036    -3.3089    -0.2009 O.3     
  11 C11            5.1233    -3.5290    -0.2979 C.2     
  12 C12            6.0553    -2.4692    -0.2948 C.2     
  13 C13            5.6203    -1.1880    -0.1915 C.2     
  14 O14            1.0861    -2.9233    -0.0043 O.3     
  15 C15            0.6016    -3.3567    -1.2769 C.3     
  16 C16           -0.3139    -4.5390    -1.0897 C.2     
  17 C17           -0.2067    -5.5814    -1.8759 C.2     
  18 C18            0.7436    -5.5487    -3.0451 C.3     
  19 C19           -1.0336    -6.8131    -1.6112 C.3     
  20 O20            5.5280    -4.6738    -0.3907 O.2     
  21 H21           -0.6970     1.8850     0.3903 H       
  22 H22            1.7579     2.7503     0.2882 H       
  23 H23            4.3416     1.1904     0.0308 H       
  24 H24            7.1121    -2.6774    -0.3740 H       
  25 H25            6.3184    -0.3640    -0.1878 H       
  26 H26            0.0527    -2.5440    -1.7526 H       
  27 H27            1.4429    -3.6448    -1.9071 H       
  28 H28           -1.0583    -4.5271    -0.3073 H       
  29 H29            1.7432    -5.8238    -2.7087 H       
  30 H30            0.4089    -6.2547    -3.8052 H       
  31 H31            0.7659    -4.5440    -3.4671 H       
  32 H32           -1.6556    -6.6509    -0.7309 H       
  33 H33           -1.6694    -7.0160    -2.4730 H       
  34 H34           -0.3738    -7.6633    -1.4381 H       
@<TRIPOS>BOND
   1    1    2 1
   2    1    5 2
   3    1   21 1
   4    2    3 1
   5    3    4 ar
   6    3    6 ar
   7    4    5 1
   8    4    9 ar
   9    5   22 1
  10    6    7 ar
  11    6   14 1
  12    7    8 ar
  13    7   10 1
  14    8    9 ar
  15    8   13 1
  16    9   23 1
  17   10   11 1
  18   11   12 1
  19   11   20 2
  20   12   13 2
  21   12   24 1
  22   13   25 1
  23   14   15 1
  24   15   16 1
  25   15   26 1
  26   15   27 1
  27   16   17 2
  28   16   28 1
  29   17   18 1
  30   17   19 1
  31   18   29 1
  32   18   30 1
  33   18   31 1
  34   19   32 1
  35   19   33 1
  36   19   34 1

#	End of record

