#	Name: ASD01903286
#	Creating user name:	WinNT
#	Creation time:	15. 06. 2019 19:54

#	Modifying user name:	WinNT
#	Modification time:	15. 06. 2019 19:54

#	Program:	/corina/corina34_cracker 3.40 0067  02.08.2006

@<TRIPOS>MOLECULE
ASD01903286
  42   45    0    0    0
SMALL
NO_CHARGES


@<TRIPOS>ATOM
   1 C1             0.0313     1.3112     0.0785 C.ar    
   2 C2            -1.0993     1.6199    -0.6605 C.ar    
   3 C3            -1.0988     2.7501    -1.4633 C.ar    
   4 C4             0.0420     3.5362    -1.4975 C.ar    
   5 C5             1.1427     3.1653    -0.7280 C.ar    
   6 N6             1.1010     2.0749     0.0277 N.ar    
   7 C7             2.3697     3.9948    -0.7533 C.2     
   8 O8             2.4133     4.9942    -1.4434 O.2     
   9 N9             3.4376     3.6411    -0.0111 N.am    
  10 C10            4.6295     4.3682    -0.1089 C.ar    
  11 C11            4.5904     5.7426    -0.3042 C.ar    
  12 C12            5.7670     6.4599    -0.4007 C.ar    
  13 C13            6.9887     5.8062    -0.3024 C.ar    
  14 C14            7.0272     4.4322    -0.1072 C.ar    
  15 C15            5.8516     3.7160    -0.0050 C.ar    
  16 N16            8.1840     6.5338    -0.4062 N.am    
  17 C17            8.8320     6.7724    -1.5607 C.2     
  18 C18           10.0427     7.5673    -1.2657 C.ar    
  19 C19           10.0430     7.7661     0.1299 C.ar    
  20 C20            8.8297     7.0894     0.6349 C.2     
  21 O21            8.4812     6.3970    -2.6612 O.2     
  22 O22            8.4779     7.0384     1.7962 O.2     
  23 C23           12.0835     8.8139    -1.4297 C.ar    
  24 C24           12.0835     9.0093    -0.0614 C.ar    
  25 C25           11.0664     8.4877     0.7229 C.ar    
  26 C26           11.0661     8.0944    -2.0369 C.ar    
  27 Br27           5.7145     8.3312    -0.6672 Br      
  28 C28           11.0732     7.8859    -3.5294 C.3     
  29 H29            0.0327     0.4339     0.7085 H       
  30 H30           -1.9723     0.9860    -0.6119 H       
  31 H31           -1.9676     3.0119    -2.0491 H       
  32 H32            0.0774     4.4235    -2.1121 H       
  33 H33            3.3802     2.8826     0.5908 H       
  34 H34            3.6404     6.2505    -0.3809 H       
  35 H35            7.9772     3.9241    -0.0308 H       
  36 H36            5.8820     2.6472     0.1468 H       
  37 H37           12.8813     9.2256    -2.0302 H       
  38 H38           12.8819     9.5714     0.4001 H       
  39 H39           11.0716     8.6434     1.7916 H       
  40 H40           10.5358     8.7017    -4.0128 H       
  41 H41           12.1022     7.8656    -3.8885 H       
  42 H42           10.5870     6.9396    -3.7664 H       
@<TRIPOS>BOND
   1    1    2 ar
   2    1    6 ar
   3    1   29 1
   4    2    3 ar
   5    2   30 1
   6    3    4 ar
   7    3   31 1
   8    4    5 ar
   9    4   32 1
  10    5    6 ar
  11    5    7 1
  12    7    8 2
  13    7    9 am
  14    9   10 1
  15    9   33 1
  16   10   11 ar
  17   10   15 ar
  18   11   12 ar
  19   11   34 1
  20   12   27 1
  21   12   13 ar
  22   13   14 ar
  23   13   16 1
  24   14   15 ar
  25   14   35 1
  26   15   36 1
  27   16   17 am
  28   16   20 am
  29   17   18 1
  30   17   21 2
  31   18   19 ar
  32   18   26 ar
  33   19   20 1
  34   19   25 ar
  35   20   22 2
  36   23   24 ar
  37   23   26 ar
  38   23   37 1
  39   24   25 ar
  40   24   38 1
  41   25   39 1
  42   26   28 1
  43   28   40 1
  44   28   41 1
  45   28   42 1

#	End of record

