#	Name: ASD02030070
#	Creating user name:	WinNT
#	Creation time:	15. 06. 2019 20:14

#	Modifying user name:	WinNT
#	Modification time:	15. 06. 2019 20:14

#	Program:	/corina/corina34_cracker 3.40 0067  02.08.2006

@<TRIPOS>MOLECULE
ASD02030070
  39   40    0    0    0
SMALL
NO_CHARGES


@<TRIPOS>ATOM
   1 C1             2.7346    -3.0549     4.9033 C.2     
   2 C2             2.0447    -3.3656     3.6323 C.ar    
   3 C3             2.5996    -2.9555     2.4185 C.ar    
   4 C4             1.9569    -3.2449     1.2346 C.ar    
   5 C5             0.7506    -3.9477     1.2487 C.ar    
   6 C6             0.1957    -4.3577     2.4626 C.ar    
   7 C7             0.8415    -4.0738     3.6461 C.ar    
   8 O8             3.7837    -2.4432     4.8910 O.2     
   9 O9             2.1965    -3.4456     6.0746 O.3     
  10 C10            0.0597    -4.2577    -0.0230 C.2     
  11 C11           -1.1447    -5.1044    -0.0190 C.ar    
  12 C12           -2.4100    -4.5289     0.1533 C.ar    
  13 C13           -3.5372    -5.3337     0.1556 C.ar    
  14 C14           -3.4151    -6.7064    -0.0118 C.ar    
  15 C15           -2.1707    -7.2824    -0.1824 C.ar    
  16 C16           -1.0325    -6.4926    -0.1938 C.ar    
  17 O17            0.4869    -3.8131    -1.0709 O.2     
  18 O18           -4.7674    -4.7775     0.3228 O.3     
  19 C19           -5.8872    -5.6652     0.3150 C.3     
  20 O20            0.1880    -7.0602    -0.3672 O.3     
  21 C21            0.2254    -8.4783    -0.5390 C.3     
  22 O22           -0.2212    -8.8107    -1.8551 O.3     
  23 F23           -2.5305    -3.1933     0.3172 F       
  24 C24            2.9283    -3.1064     7.2820 C.3     
  25 H25            3.5323    -2.4113     2.4076 H       
  26 H26            2.3861    -2.9277     0.2956 H       
  27 H27           -0.7374    -4.9014     2.4735 H       
  28 H28            0.4146    -4.3949     4.5848 H       
  29 H29           -4.2983    -7.3281    -0.0082 H       
  30 H30           -2.0855    -8.3512    -0.3119 H       
  31 H31           -5.7816    -6.3904     1.1218 H       
  32 H32           -6.8046    -5.0940     0.4576 H       
  33 H33           -5.9296    -6.1881    -0.6404 H       
  34 H34            1.2464    -8.8342    -0.4011 H       
  35 H35           -0.4264    -8.9507     0.1960 H       
  36 H36           -0.2220    -9.7594    -2.0423 H       
  37 H37            3.9176    -3.5627     7.2475 H       
  38 H38            3.0299    -2.0235     7.3531 H       
  39 H39            2.3868    -3.4784     8.1517 H       
@<TRIPOS>BOND
   1    1    2 1
   2    1    8 2
   3    1    9 1
   4    2    3 ar
   5    2    7 ar
   6    3    4 ar
   7    3   25 1
   8    4    5 ar
   9    4   26 1
  10    5    6 ar
  11    5   10 1
  12    6    7 ar
  13    6   27 1
  14    7   28 1
  15    9   24 1
  16   10   11 1
  17   10   17 2
  18   11   12 ar
  19   11   16 ar
  20   12   13 ar
  21   12   23 1
  22   13   14 ar
  23   13   18 1
  24   14   15 ar
  25   14   29 1
  26   15   16 ar
  27   15   30 1
  28   16   20 1
  29   18   19 1
  30   19   31 1
  31   19   32 1
  32   19   33 1
  33   20   21 1
  34   21   22 1
  35   21   34 1
  36   21   35 1
  37   22   36 1
  38   24   37 1
  39   24   38 1
  40   24   39 1

#	End of record

