#	Name: ASD07930094
#	Creating user name:	WinNT
#	Creation time:	15. 06. 2019 21:11

#	Modifying user name:	WinNT
#	Modification time:	15. 06. 2019 21:11

#	Program:	/corina/corina34_cracker 3.40 0067  02.08.2006

@<TRIPOS>MOLECULE
ASD07930094
  18   19    0    0    0
SMALL
NO_CHARGES


@<TRIPOS>ATOM
   1 S1            -0.0211     1.7022     0.0114 S.3     
   2 C2             0.0021    -0.0041     0.0020 C.2     
   3 N3             1.1985    -0.4566    -0.0118 N.2     
   4 C4             2.2081     0.4350    -0.0167 C.ar    
   5 C5             1.7392     1.7515    -0.0051 C.ar    
   6 C6             3.6030     0.2153    -0.0312 C.ar    
   7 C7             4.4733     1.2779    -0.0333 C.ar    
   8 C8             3.9978     2.5817    -0.0213 C.ar    
   9 C9             2.6382     2.8212    -0.0076 C.ar    
  10 O10            2.1735     4.0993     0.0037 O.3     
  11 C11           -1.2319    -0.8691     0.0092 C.3     
  12 F12           -0.8585    -2.2133     0.1133 F       
  13 F13           -2.0376    -0.5231     1.0992 F       
  14 F14           -1.9451    -0.6740    -1.1785 F       
  15 F15            4.0841    -1.0471    -0.0426 F       
  16 H16            5.5380     1.0971    -0.0441 H       
  17 H17            4.6917     3.4094    -0.0228 H       
  18 H18            2.0473     4.4641     0.8903 H       
@<TRIPOS>BOND
   1    1    2 1
   2    1    5 1
   3    2    3 2
   4    2   11 1
   5    3    4 1
   6    4    5 ar
   7    4    6 ar
   8    5    9 ar
   9    6    7 ar
  10    6   15 1
  11    7    8 ar
  12    7   16 1
  13    8    9 ar
  14    8   17 1
  15    9   10 1
  16   10   18 1
  17   11   12 1
  18   11   13 1
  19   11   14 1

#	End of record

