#	Name: ASD04590226
#	Creating user name:	WinNT
#	Creation time:	15. 06. 2019 20:50

#	Modifying user name:	WinNT
#	Modification time:	15. 06. 2019 20:50

#	Program:	/corina/corina34_cracker 3.40 0067  02.08.2006

@<TRIPOS>MOLECULE
ASD04590226
  62   64    0    0    0
SMALL
NO_CHARGES


@<TRIPOS>ATOM
   1 N1            -0.0169     1.3950     0.0097 N.pl3   
   2 N2             0.0021    -0.0041     0.0020 N.2     
   3 C3             1.2467    -0.4104    -0.0120 C.2     
   4 C4             2.0789     0.7380    -0.0138 C.2     
   5 C5             1.2484     1.8413     0.0000 C.2     
   6 N6             1.6782    -1.7391    -0.0226 N.am    
   7 C7             3.5511     0.7515    -0.0274 C.2     
   8 O8             4.1687    -0.2962    -0.0385 O.2     
   9 N9             4.2143     1.9248    -0.0275 N.am    
  10 C10            5.6792     1.9381    -0.0410 C.3     
  11 C11            6.1716     3.2532    -0.6484 C.3     
  12 C12            7.7015     3.2672    -0.6625 C.3     
  13 C13            8.2259     3.1387     0.7691 C.3     
  14 C14            7.7335     1.8236     1.3765 C.3     
  15 C15            6.2036     1.8097     1.3906 C.3     
  16 C16            0.7763    -2.7406    -0.0191 C.2     
  17 O17           -0.4132    -2.4877    -0.0068 O.2     
  18 C18            1.2315    -4.1421    -0.0302 C.ar    
  19 C19            1.4381    -4.8072    -1.2471 C.ar    
  20 C20            1.8664    -6.1256    -1.2458 C.ar    
  21 C21            2.0888    -6.7818    -0.0507 C.ar    
  22 C22            1.8864    -6.1318     1.1544 C.ar    
  23 C23            1.4659    -4.8162     1.1739 C.ar    
  24 F24            1.2700    -4.1853     2.3524 F       
  25 O25            1.2195    -4.1633    -2.4209 O.3     
  26 C26            1.4510    -4.9046    -3.6205 C.3     
  27 C27            9.7328     3.1525     0.7552 C.2     
  28 O28           10.4155     3.0513     1.9065 O.3     
  29 O29           10.3264     3.2546    -0.2922 O.2     
  30 C30           11.8646     3.0716     1.8175 C.3     
  31 C31           12.3184     4.3887     1.1848 C.3     
  32 C32           12.4635     2.9464     3.2198 C.3     
  33 C33           12.3390     1.9010     0.9540 C.3     
  34 H34           -0.8125     1.9499     0.0167 H       
  35 H35            1.5606     2.8752     0.0023 H       
  36 H36            2.6270    -1.9408    -0.0324 H       
  37 H37            3.7217     2.7603    -0.0186 H       
  38 H38            6.0447     1.1027    -0.6381 H       
  39 H39            5.7981     3.3447    -1.6683 H       
  40 H40            5.8062     4.0886    -0.0512 H       
  41 H41            8.0670     2.4318    -1.2596 H       
  42 H42            8.0523     4.2041    -1.0952 H       
  43 H43            7.8604     3.9741     1.3663 H       
  44 H44            8.0990     0.9882     0.7794 H       
  45 H45            8.1071     1.7321     2.3964 H       
  46 H46            5.8381     2.6451     1.9878 H       
  47 H47            5.8528     0.8728     1.8234 H       
  48 H48            2.0262    -6.6411    -2.1813 H       
  49 H49            2.4223    -7.8090    -0.0568 H       
  50 H50            2.0624    -6.6539     2.0833 H       
  51 H51            2.4916    -5.2274    -3.6529 H       
  52 H52            0.7989    -5.7778    -3.6395 H       
  53 H53            1.2391    -4.2740    -4.4839 H       
  54 H54           11.9805     5.2226     1.8000 H       
  55 H55           13.4062     4.4039     1.1180 H       
  56 H56           11.8917     4.4778     0.1858 H       
  57 H57           12.1403     2.0081     3.6705 H       
  58 H58           13.5514     2.9616     3.1530 H       
  59 H59           12.1256     3.7804     3.8350 H       
  60 H60           11.9123     1.9901    -0.0450 H       
  61 H61           13.4268     1.9162     0.8872 H       
  62 H62           12.0157     0.9626     1.4047 H       
@<TRIPOS>BOND
   1    1    2 1
   2    1    5 1
   3    1   34 1
   4    2    3 2
   5    3    4 1
   6    3    6 1
   7    4    5 2
   8    4    7 1
   9    5   35 1
  10    6   16 am
  11    6   36 1
  12    7    8 2
  13    7    9 am
  14    9   10 1
  15    9   37 1
  16   10   11 1
  17   10   15 1
  18   10   38 1
  19   11   12 1
  20   11   39 1
  21   11   40 1
  22   12   13 1
  23   12   41 1
  24   12   42 1
  25   13   14 1
  26   13   27 1
  27   13   43 1
  28   14   15 1
  29   14   44 1
  30   14   45 1
  31   15   46 1
  32   15   47 1
  33   16   17 2
  34   16   18 1
  35   18   19 ar
  36   18   23 ar
  37   19   20 ar
  38   19   25 1
  39   20   21 ar
  40   20   48 1
  41   21   22 ar
  42   21   49 1
  43   22   23 ar
  44   22   50 1
  45   23   24 1
  46   25   26 1
  47   26   51 1
  48   26   52 1
  49   26   53 1
  50   27   28 1
  51   27   29 2
  52   28   30 1
  53   30   31 1
  54   30   32 1
  55   30   33 1
  56   31   54 1
  57   31   55 1
  58   31   56 1
  59   32   57 1
  60   32   58 1
  61   32   59 1
  62   33   60 1
  63   33   61 1
  64   33   62 1

#	End of record

