#	Name: ASD03200092
#	Creating user name:	WinNT
#	Creation time:	15. 06. 2019 20:34

#	Modifying user name:	WinNT
#	Modification time:	15. 06. 2019 20:34

#	Program:	/corina/corina34_cracker 3.40 0067  02.08.2006

@<TRIPOS>MOLECULE
ASD03200092
  25   26    0    0    0
SMALL
NO_CHARGES


@<TRIPOS>ATOM
   1 C1            -1.1994    -0.7061     0.3638 C.ar    
   2 C2            -2.4021    -0.0363     0.2568 C.ar    
   3 C3            -5.7632     0.4036     1.0125 C.ar    
   4 C4            -6.6855    -0.6170     0.8923 C.ar    
   5 C5            -6.9746    -1.1478    -0.3563 C.ar    
   6 C6            -5.1246     0.8986    -0.1176 C.ar    
   7 C7            -5.4106     0.3623    -1.3669 C.ar    
   8 C8            -6.3375    -0.6543    -1.4854 C.ar    
   9 C9            -2.4192     1.3502     0.1705 C.ar    
  10 C10           -1.2259     2.0613     0.1919 C.ar    
  11 C11           -0.0243     1.3894     0.2990 C.ar    
  12 O12           -7.8832    -2.1529    -0.4735 O.3     
  13 S13           -3.9532     2.2062     0.0333 S.3     
  14 C14           -0.0084     0.0050     0.3851 C.ar    
  15 O15            1.1753    -0.6554     0.4962 O.3     
  16 H16           -1.1861    -1.7836     0.4353 H       
  17 H17           -3.3292    -0.5901     0.2398 H       
  18 H18           -5.5416     0.8197     1.9841 H       
  19 H19           -7.1821    -1.0020     1.7707 H       
  20 H20           -4.9150     0.7467    -2.2461 H       
  21 H21           -6.5632    -1.0683    -2.4570 H       
  22 H22           -1.2380     3.1391     0.1246 H       
  23 H23            0.9035     1.9420     0.3154 H       
  24 H24           -7.5012    -3.0385    -0.4037 H       
  25 H25            1.5679    -0.9042    -0.3517 H       
@<TRIPOS>BOND
   1    1   14 ar
   2    1   16 1
   3    1    2 ar
   4    2   17 1
   5    2    9 ar
   6    3    6 ar
   7    3   18 1
   8    3    4 ar
   9    4   19 1
  10    4    5 ar
  11    5    8 ar
  12    5   12 1
  13    6   13 1
  14    6    7 ar
  15    7   20 1
  16    7    8 ar
  17    8   21 1
  18    9   10 ar
  19    9   13 1
  20   10   11 ar
  21   10   22 1
  22   11   14 ar
  23   11   23 1
  24   12   24 1
  25   14   15 1
  26   15   25 1

#	End of record

