#	Name: ASD01940402
#	Creating user name:	WinNT
#	Creation time:	15. 06. 2019 20:12

#	Modifying user name:	WinNT
#	Modification time:	15. 06. 2019 20:12

#	Program:	/corina/corina34_cracker 3.40 0067  02.08.2006

@<TRIPOS>MOLECULE
ASD01940402
  49   52    0    0    0
SMALL
NO_CHARGES


@<TRIPOS>ATOM
   1 S1             1.4538     2.3537    -2.6102 S.3     
   2 N2             1.6396     0.7516    -3.1338 N.2     
   3 C3             2.2942     0.1026    -2.2341 C.2     
   4 C4             2.7052     0.7797    -1.0733 C.ar    
   5 C5             2.3133     2.1322    -1.0823 C.ar    
   6 C6             2.6198     2.9847    -0.0258 C.ar    
   7 C7             3.3136     2.5232     1.0514 C.ar    
   8 C8             3.7238     1.1811     1.1011 C.ar    
   9 C9             3.4267     0.3089     0.0527 C.ar    
  10 C10            4.4730     0.6902     2.2682 C.2     
  11 O11            4.9179    -0.4420     2.2732 O.2     
  12 N12            4.6665     1.4949     3.3320 N.am    
  13 O13            5.3876     1.0224     4.4553 O.3     
  14 C14            5.5162     1.9799     5.5082 C.3     
  15 O15            6.5985     1.5030     8.9842 O.3     
  16 C16            6.0666     0.2202     8.6279 C.3     
  17 O17            5.5695     0.2831     7.2805 O.3     
  18 C18            6.3085     1.3644     6.6633 C.3     
  19 C19            6.4429     2.3647     7.8386 C.3     
  20 C20            7.1686    -0.8370     8.7204 C.3     
  21 C21            4.9262    -0.1459     9.5799 C.3     
  22 N22            3.8356    -1.0121     0.1121 N.pl3   
  23 C23            3.0239    -1.9684     0.7313 C.ar    
  24 C24            3.3760    -3.3138     0.6904 C.ar    
  25 C25            2.5714    -4.2556     1.3041 C.ar    
  26 C26            1.4175    -3.8606     1.9579 C.ar    
  27 C27            1.0657    -2.5238     1.9997 C.ar    
  28 C28            1.8682    -1.5766     1.3930 C.ar    
  29 I29            0.2004    -5.2911     2.8861 I       
  30 F30            4.5023    -3.6993     0.0516 F       
  31 H31            2.5230    -0.9442    -2.3694 H       
  32 H32            2.3060     4.0175    -0.0604 H       
  33 H33            3.5489     3.1900     1.8677 H       
  34 H34            4.3118     2.3977     3.3280 H       
  35 H35            6.0405     2.8604     5.1365 H       
  36 H36            4.5257     2.2684     5.8599 H       
  37 H37            7.2877     1.0251     6.3258 H       
  38 H38            5.5425     2.9717     7.9327 H       
  39 H39            7.3223     2.9955     7.7089 H       
  40 H40            7.5335    -0.8927     9.7460 H       
  41 H41            6.7679    -1.8065     8.4241 H       
  42 H42            7.9896    -0.5651     8.0569 H       
  43 H43            4.1505     0.6181     9.5285 H       
  44 H44            4.5067    -1.1095     9.2909 H       
  45 H45            5.3089    -0.2071    10.5987 H       
  46 H46            4.6850    -1.2748    -0.2758 H       
  47 H47            2.8432    -5.3004     1.2729 H       
  48 H48            0.1645    -2.2193     2.5110 H       
  49 H49            1.5943    -0.5326     1.4300 H       
@<TRIPOS>BOND
   1    1    2 1
   2    1    5 1
   3    2    3 2
   4    3    4 1
   5    3   31 1
   6    4    5 ar
   7    4    9 ar
   8    5    6 ar
   9    6    7 ar
  10    6   32 1
  11    7    8 ar
  12    7   33 1
  13    8    9 ar
  14    8   10 1
  15    9   22 1
  16   10   11 2
  17   10   12 am
  18   12   13 1
  19   12   34 1
  20   13   14 1
  21   14   18 1
  22   14   35 1
  23   14   36 1
  24   15   16 1
  25   15   19 1
  26   16   17 1
  27   16   20 1
  28   16   21 1
  29   17   18 1
  30   18   19 1
  31   18   37 1
  32   19   38 1
  33   19   39 1
  34   20   40 1
  35   20   41 1
  36   20   42 1
  37   21   43 1
  38   21   44 1
  39   21   45 1
  40   22   23 1
  41   22   46 1
  42   23   24 ar
  43   23   28 ar
  44   24   25 ar
  45   24   30 1
  46   25   26 ar
  47   25   47 1
  48   26   27 ar
  49   26   29 1
  50   27   28 ar
  51   27   48 1
  52   28   49 1

#	End of record

