#	Name: ASD01913289
#	Creating user name:	WinNT
#	Creation time:	15. 06. 2019 20:01

#	Modifying user name:	WinNT
#	Modification time:	15. 06. 2019 20:01

#	Program:	/corina/corina34_cracker 3.40 0067  02.08.2006

@<TRIPOS>MOLECULE
ASD01913289
  48   50    0    0    0
SMALL
NO_CHARGES


@<TRIPOS>ATOM
   1 C1            -0.0169     1.3971     0.0097 C.ar    
   2 C2             0.0021    -0.0041     0.0020 C.ar    
   3 C3             1.2454    -0.6502    -0.0133 C.ar    
   4 N4             2.3460     0.0795    -0.0199 N.ar    
   5 C5             2.2851     1.4038    -0.0122 C.ar    
   6 N6             1.1293     2.0528     0.0023 N.ar    
   7 N7             3.4624     2.1297    -0.0191 N.pl3   
   8 C8             3.4200     3.5941    -0.0108 C.3     
   9 C9            -1.2168    -0.7557     0.0101 C.1     
  10 C10           -2.2161    -1.3719     0.0167 C.1     
  11 C11           -3.4349    -2.1235     0.0248 C.ar    
  12 C12           -3.3984    -3.5204     0.0169 C.ar    
  13 C13           -4.5764    -4.2376     0.0252 C.ar    
  14 C14           -5.7924    -3.5773     0.0409 C.ar    
  15 C15           -5.8364    -2.1942     0.0487 C.ar    
  16 C16           -4.6665    -1.4637     0.0464 C.ar    
  17 C17            4.7176     4.1385     0.5899 C.3     
  18 C18            5.9058     3.6674    -0.2510 C.3     
  19 C19            5.7523     4.1812    -1.6839 C.3     
  20 C20            4.4547     3.6369    -2.2846 C.3     
  21 C21            3.2664     4.1080    -1.4437 C.3     
  22 O22            4.6763     5.5668     0.5980 O.3     
  23 C23            5.4177     6.1637     1.6638 C.3     
  24 O24            2.0545     3.5995    -2.0048 O.3     
  25 C25            1.4582     4.4603    -2.9772 C.3     
  26 H26           -0.9548     1.9326     0.0171 H       
  27 H27            1.3027    -1.7287    -0.0193 H       
  28 H28            4.3161     1.6693    -0.0294 H       
  29 H29            2.5735     3.9297     0.5882 H       
  30 H30           -2.4501    -4.0371     0.0040 H       
  31 H31           -4.5498    -5.3173     0.0192 H       
  32 H32           -6.7117    -4.1441     0.0466 H       
  33 H33           -6.7890    -1.6856     0.0606 H       
  34 H34           -4.7023    -0.3843     0.0525 H       
  35 H35            4.8270     3.7724     1.6107 H       
  36 H36            6.8303     4.0552     0.1770 H       
  37 H37            5.9374     2.5778    -0.2571 H       
  38 H38            5.7207     5.2708    -1.6777 H       
  39 H39            6.5988     3.8456    -2.2829 H       
  40 H40            4.3453     4.0030    -3.3054 H       
  41 H41            4.4862     2.5474    -2.2907 H       
  42 H42            3.2349     5.1975    -1.4376 H       
  43 H43            5.3363     7.2488     1.5999 H       
  44 H44            5.0171     5.8250     2.6193 H       
  45 H45            6.4652     5.8727     1.5853 H       
  46 H46            1.2219     5.4197    -2.5169 H       
  47 H47            2.1544     4.6145    -3.8016 H       
  48 H48            0.5435     4.0033    -3.3547 H       
@<TRIPOS>BOND
   1    1    2 ar
   2    1    6 ar
   3    1   26 1
   4    2    3 ar
   5    2    9 1
   6    3    4 ar
   7    3   27 1
   8    4    5 ar
   9    5    6 ar
  10    5    7 1
  11    7    8 1
  12    7   28 1
  13    8   17 1
  14    8   21 1
  15    8   29 1
  16    9   10 3
  17   10   11 1
  18   11   12 ar
  19   11   16 ar
  20   12   13 ar
  21   12   30 1
  22   13   14 ar
  23   13   31 1
  24   14   15 ar
  25   14   32 1
  26   15   16 ar
  27   15   33 1
  28   16   34 1
  29   17   18 1
  30   17   22 1
  31   17   35 1
  32   18   19 1
  33   18   36 1
  34   18   37 1
  35   19   20 1
  36   19   38 1
  37   19   39 1
  38   20   21 1
  39   20   40 1
  40   20   41 1
  41   21   24 1
  42   21   42 1
  43   22   23 1
  44   23   43 1
  45   23   44 1
  46   23   45 1
  47   24   25 1
  48   25   46 1
  49   25   47 1
  50   25   48 1

#	End of record

