#	Name: ASD01913803
#	Creating user name:	WinNT
#	Creation time:	15. 06. 2019 20:02

#	Modifying user name:	WinNT
#	Modification time:	15. 06. 2019 20:02

#	Program:	/corina/corina34_cracker 3.40 0067  02.08.2006

@<TRIPOS>MOLECULE
ASD01913803
  37   39    0    0    0
SMALL
NO_CHARGES


@<TRIPOS>ATOM
   1 N1            -0.0086     1.3010    -0.1770 N.ar    
   2 C2            -0.0009     0.0014     0.0487 C.ar    
   3 C3             1.1852    -0.6779     0.2787 C.ar    
   4 C4             2.3799     0.0233     0.2707 C.ar    
   5 C5             2.3378     1.4027     0.0280 C.ar    
   6 C6             1.1000     2.0112    -0.1947 C.ar    
   7 C7             3.5431     2.1758     0.0090 C.1     
   8 C8             4.5312     2.8096    -0.0066 C.1     
   9 C9             5.7365     3.5826    -0.0256 C.ar    
  10 C10            5.6929     4.9636    -0.2688 C.ar    
  11 C11            8.0743     4.9869    -0.0461 C.ar    
  12 N12            8.0823     3.6830     0.1867 N.ar    
  13 C13            6.9726     2.9742     0.2033 C.ar    
  14 C14            6.8815     5.6656    -0.2771 C.ar    
  15 N15            9.2764     5.6904    -0.0521 N.am    
  16 C16            9.3985     7.0248    -0.0448 C.2     
  17 O17           10.6661     7.4522    -0.0531 O.3     
  18 C18           11.5652     6.3058    -0.0682 C.3     
  19 C19           10.6191     5.0896    -0.0612 C.3     
  20 C20           12.4255     6.3154    -1.3333 C.3     
  21 C21           12.4474     6.2996     1.1819 C.3     
  22 O22            8.4451     7.7778    -0.0318 O.2     
  23 F23            1.1762    -2.0091     0.5087 F       
  24 H24           -0.9341    -0.5422     0.0546 H       
  25 H25            3.3190    -0.4800     0.4472 H       
  26 H26            1.0520     3.0735    -0.3831 H       
  27 H27            4.7529     5.4651    -0.4454 H       
  28 H28            7.0188     1.9126     0.3960 H       
  29 H29            6.8857     6.7298    -0.4612 H       
  30 H30           10.7800     4.4844     0.8310 H       
  31 H31           10.7584     4.4909    -0.9614 H       
  32 H32           13.0368     7.2177    -1.3502 H       
  33 H33           13.0724     5.4381    -1.3395 H       
  34 H34           11.7803     6.2972    -2.2116 H       
  35 H35           11.8175     6.2703     2.0710 H       
  36 H36           13.0942     5.4224     1.1658 H       
  37 H37           13.0590     7.2017     1.1995 H       
@<TRIPOS>BOND
   1    1    2 ar
   2    1    6 ar
   3    2    3 ar
   4    2   24 1
   5    3    4 ar
   6    3   23 1
   7    4    5 ar
   8    4   25 1
   9    5    6 ar
  10    5    7 1
  11    6   26 1
  12    7    8 3
  13    8    9 1
  14    9   10 ar
  15    9   13 ar
  16   10   14 ar
  17   10   27 1
  18   11   12 ar
  19   11   15 1
  20   11   14 ar
  21   12   13 ar
  22   13   28 1
  23   14   29 1
  24   15   16 am
  25   15   19 1
  26   16   17 1
  27   16   22 2
  28   17   18 1
  29   18   19 1
  30   18   20 1
  31   18   21 1
  32   19   30 1
  33   19   31 1
  34   20   32 1
  35   20   33 1
  36   20   34 1
  37   21   35 1
  38   21   36 1
  39   21   37 1

#	End of record

