#	Name: ASD03331024
#	Creating user name:	WinNT
#	Creation time:	15. 06. 2019 20:38

#	Modifying user name:	WinNT
#	Modification time:	15. 06. 2019 20:38

#	Program:	/corina/corina34_cracker 3.40 0067  02.08.2006

@<TRIPOS>MOLECULE
ASD03331024
  62   64    0    0    0
SMALL
NO_CHARGES


@<TRIPOS>ATOM
   1 N1             0.2130     1.1121    -0.1465 N.pl3   
   2 C2             0.2598    -0.2439    -0.0406 C.2     
   3 C3             1.5248    -1.0593    -0.0343 C.3     
   4 N4             2.4853    -0.4090     0.8660 N.am    
   5 C5             3.3398     0.6443     0.3416 C.3     
   6 C6             2.5844     1.4138    -0.7527 C.3     
   7 C7             1.3316     2.0615    -0.1624 C.3     
   8 C8            -1.1120     1.4572    -0.2047 C.2     
   9 N9            -1.8388     0.3723    -0.0884 N.2     
  10 C10           -1.0204    -0.6968     0.0229 C.2     
  11 C11           -1.4397    -2.1003     0.1832 C.2     
  12 O12           -0.6030    -2.9785     0.2723 O.2     
  13 N13           -2.7503    -2.4108     0.2311 N.am    
  14 C14           -1.6365     2.8297    -0.3712 C.ar    
  15 C15           -2.6390     3.0883    -1.3099 C.ar    
  16 C16           -3.1257     4.3726    -1.4609 C.ar    
  17 C17           -2.6215     5.4025    -0.6844 C.ar    
  18 C18           -1.6256     5.1511     0.2490 C.ar    
  19 C19           -1.1363     3.8701     0.4125 C.ar    
  20 F20           -1.1376     6.1606     1.0027 F       
  21 F21           -3.1006     6.6566    -0.8363 F       
  22 F22           -3.1309     2.0845    -2.0687 F       
  23 C23            2.5733    -0.7822     2.1581 C.2     
  24 O24            3.3701    -0.2386     2.8933 O.2     
  25 C25            1.6817    -1.8748     2.6892 C.3     
  26 C26           -4.5384    -3.8527     1.0139 C.2     
  27 C27           -3.1672    -3.8061     0.3905 C.3     
  28 C28           -3.2064    -4.4864    -0.9794 C.3     
  29 C29           -4.1255    -3.6977    -1.9143 C.3     
  30 O30           -5.3089    -2.9299     0.8538 O.2     
  31 N31           -4.9085    -4.9198     1.7493 N.am    
  32 C32           -6.1961    -4.9169     2.4480 C.3     
  33 C33           -1.7949    -4.5289    -1.5683 C.3     
  34 C34           -3.7380    -5.9128    -0.8255 C.3     
  35 H35            1.3109    -2.0671     0.3219 H       
  36 H36            1.9379    -1.1049    -1.0420 H       
  37 H37            3.6101     1.3278     1.1464 H       
  38 H38            4.2428     0.2036    -0.0808 H       
  39 H39            3.2325     2.1875    -1.1643 H       
  40 H40            2.2960     0.7247    -1.5465 H       
  41 H41            1.0581     2.9280    -0.7645 H       
  42 H42            1.5416     2.3857     0.8569 H       
  43 H43           -3.4176    -1.7104     0.1601 H       
  44 H44           -3.9004     4.5737    -2.1861 H       
  45 H45           -0.3645     3.6749     1.1423 H       
  46 H46            2.1757    -2.8387     2.5667 H       
  47 H47            1.4833    -1.7000     3.7466 H       
  48 H48            0.7411    -1.8761     2.1384 H       
  49 H49           -2.4576    -4.3261     1.0342 H       
  50 H50           -3.7467    -2.6815    -2.0240 H       
  51 H51           -4.1534    -4.1823    -2.8903 H       
  52 H52           -5.1310    -3.6674    -1.4948 H       
  53 H53           -4.3223    -5.6898     1.8158 H       
  54 H54           -6.3198    -5.8569     2.9858 H       
  55 H55           -6.2240    -4.0876     3.1548 H       
  56 H56           -7.0025    -4.8040     1.7234 H       
  57 H57           -1.1401    -5.0908    -0.9022 H       
  58 H58           -1.8228    -5.0135    -2.5442 H       
  59 H59           -1.4161    -3.5127    -1.6779 H       
  60 H60           -4.7789    -5.8799    -0.5040 H       
  61 H61           -3.6693    -6.4313    -1.7818 H       
  62 H62           -3.1443    -6.4434    -0.0811 H       
@<TRIPOS>BOND
   1    1    2 1
   2    1    7 1
   3    1    8 1
   4    2    3 1
   5    2   10 2
   6    3    4 1
   7    3   35 1
   8    3   36 1
   9    4    5 1
  10    4   23 am
  11    5    6 1
  12    5   37 1
  13    5   38 1
  14    6    7 1
  15    6   39 1
  16    6   40 1
  17    7   41 1
  18    7   42 1
  19    8    9 2
  20    8   14 1
  21    9   10 1
  22   10   11 1
  23   11   12 2
  24   11   13 am
  25   13   27 1
  26   13   43 1
  27   14   15 ar
  28   14   19 ar
  29   15   16 ar
  30   15   22 1
  31   16   17 ar
  32   16   44 1
  33   17   18 ar
  34   17   21 1
  35   18   19 ar
  36   18   20 1
  37   19   45 1
  38   23   24 2
  39   23   25 1
  40   25   46 1
  41   25   47 1
  42   25   48 1
  43   26   30 2
  44   26   31 am
  45   26   27 1
  46   27   28 1
  47   27   49 1
  48   28   29 1
  49   28   33 1
  50   28   34 1
  51   29   50 1
  52   29   51 1
  53   29   52 1
  54   31   32 1
  55   31   53 1
  56   32   54 1
  57   32   55 1
  58   32   56 1
  59   33   57 1
  60   33   58 1
  61   33   59 1
  62   34   60 1
  63   34   61 1
  64   34   62 1

#	End of record

