#	Name: ASD02030779
#	Creating user name:	WinNT
#	Creation time:	15. 06. 2019 20:16

#	Modifying user name:	WinNT
#	Modification time:	15. 06. 2019 20:16

#	Program:	/corina/corina34_cracker 3.40 0067  02.08.2006

@<TRIPOS>MOLECULE
ASD02030779
  41   44    0    0    0
SMALL
NO_CHARGES


@<TRIPOS>ATOM
   1 C1             0.5977    -0.3387     1.7514 C.3     
   2 O2            -0.0262    -0.0659     0.4951 O.3     
   3 C3            -1.1660    -0.7508     0.2102 C.2     
   4 C4            -2.3444    -0.0883     0.0965 C.2     
   5 C5            -2.3813     1.4061     0.2875 C.3     
   6 C6            -1.1588     2.2066    -0.1657 C.3     
   7 C7            -2.4597     2.2770    -0.9680 C.3     
   8 C8            -2.4945     1.5640    -2.3213 C.3     
   9 N9            -3.4951    -0.7605    -0.1891 N.am    
  10 C10           -4.6561    -0.0797    -0.2975 C.2     
  11 O11           -4.6816     1.1312    -0.1421 O.2     
  12 C12           -5.8295    -0.7831    -0.5910 C.2     
  13 C13           -5.7626    -2.1528    -0.7607 C.2     
  14 C14           -7.0116    -2.9341    -1.0780 C.3     
  15 N15           -7.1218    -3.1112    -2.5281 N.pl3   
  16 N16           -7.7646    -2.2409    -3.4178 N.2     
  17 C17           -7.6532    -2.7339    -4.6252 C.2     
  18 Cl18          -8.2850    -2.0228    -6.0775 Cl      
  19 C19           -6.9364    -3.9332    -4.5432 C.2     
  20 C20           -6.6167    -4.1387    -3.2430 C.2     
  21 Cl21          -5.7219    -5.4845    -2.6093 Cl      
  22 N22           -4.6025    -2.7789    -0.6453 N.2     
  23 C23           -3.4812    -2.1153    -0.3664 C.2     
  24 C24           -2.2694    -2.8210    -0.2528 C.2     
  25 C25           -1.1215    -2.1437     0.0279 C.2     
  26 H26            1.5395     0.2064     1.8154 H       
  27 H27           -0.0608    -0.0224     2.5604 H       
  28 H28            0.7904    -1.4081     1.8368 H       
  29 H29           -2.9102     1.7536     1.1749 H       
  30 H30           -0.8831     3.0811     0.4237 H       
  31 H31           -0.3278     1.6524    -0.6020 H       
  32 H32           -3.0398     3.1977    -0.9064 H       
  33 H33           -3.4135     0.9835    -2.4026 H       
  34 H34           -2.4593     2.3027    -3.1221 H       
  35 H35           -1.6355     0.8980    -2.4033 H       
  36 H36           -6.7721    -0.2641    -0.6831 H       
  37 H37           -6.9619    -3.9103    -0.5955 H       
  38 H38           -7.8827    -2.3914    -0.7110 H       
  39 H39           -6.6799    -4.5783    -5.3705 H       
  40 H40           -2.2488    -3.8919    -0.3912 H       
  41 H41           -0.1844    -2.6737     0.1135 H       
@<TRIPOS>BOND
   1    1    2 1
   2    1   26 1
   3    1   27 1
   4    1   28 1
   5    2    3 1
   6    3   25 1
   7    3    4 2
   8    4    5 1
   9    4    9 1
  10    5    7 1
  11    5    6 1
  12    5   29 1
  13    6    7 1
  14    6   30 1
  15    6   31 1
  16    7    8 1
  17    7   32 1
  18    8   33 1
  19    8   34 1
  20    8   35 1
  21    9   23 1
  22    9   10 am
  23   10   11 2
  24   10   12 1
  25   12   13 2
  26   12   36 1
  27   13   14 1
  28   13   22 1
  29   14   15 1
  30   14   37 1
  31   14   38 1
  32   15   20 1
  33   15   16 1
  34   16   17 2
  35   17   18 1
  36   17   19 1
  37   19   20 2
  38   19   39 1
  39   20   21 1
  40   22   23 2
  41   23   24 1
  42   24   25 2
  43   24   40 1
  44   25   41 1

#	End of record

