#	Name: ASD03080110
#	Creating user name:	WinNT
#	Creation time:	15. 06. 2019 20:26

#	Modifying user name:	WinNT
#	Modification time:	15. 06. 2019 20:26

#	Program:	/corina/corina34_cracker 3.40 0067  02.08.2006

@<TRIPOS>MOLECULE
ASD03080110
  32   33    0    0    0
SMALL
NO_CHARGES


@<TRIPOS>ATOM
   1 N1             0.0175    -1.1399    -0.0042 N.1     
   2 C2             0.0021    -0.0041     0.0020 C.1     
   3 C3            -0.0173     1.4278     0.0099 C.ar    
   4 C4             1.1809     2.1449     0.0023 C.ar    
   5 C5             1.1589     3.5248     0.0100 C.ar    
   6 C6            -0.0463     4.2013     0.0252 C.ar    
   7 C7            -1.2443     3.4969     0.0333 C.ar    
   8 C8            -1.2338     2.1115     0.0194 C.ar    
   9 N9            -2.4640     4.1885     0.0491 N.pl3   
  10 N10           -3.6296     3.6423     0.0582 N.2     
  11 N11           -4.5266     4.5690     0.0725 N.2     
  12 C12           -3.8834     5.7454     0.0722 C.2     
  13 N13           -2.5937     5.4706     0.0625 N.2     
  14 C14           -4.5024     7.0945     0.0853 C.ar    
  15 C15           -3.7049     8.2415     0.0828 C.ar    
  16 C16           -4.3307     9.4766     0.0955 C.ar    
  17 C17           -5.7120     9.5347     0.1102 C.ar    
  18 N18           -6.4388     8.4338     0.1127 N.ar    
  19 C19           -5.8882     7.2373     0.0946 C.ar    
  20 C20           -7.8995     8.5451     0.1294 C.3     
  21 H21            2.1245     1.6197    -0.0092 H       
  22 H22            2.0865     4.0778     0.0044 H       
  23 H23           -0.0571     5.2813     0.0311 H       
  24 H24           -2.1639     1.5626     0.0253 H       
  25 H25           -2.6275     8.1667     0.0716 H       
  26 H26           -3.7461    10.3847     0.0944 H       
  27 H27           -6.2036    10.4963     0.1201 H       
  28 H28           -6.5166     6.3590     0.0974 H       
  29 H29           -8.2731     8.5779    -0.8941 H       
  30 H30           -8.3238     7.6827     0.6436 H       
  31 H31           -8.1884     9.4575     0.6511 H       
  32 I32            7.1245    15.4963     5.6511 I       
@<TRIPOS>BOND
   1    1    2 3
   2    2    3 1
   3    3    4 ar
   4    3    8 ar
   5    4    5 ar
   6    4   21 1
   7    5    6 ar
   8    5   22 1
   9    6    7 ar
  10    6   23 1
  11    7    8 ar
  12    7    9 1
  13    8   24 1
  14    9   10 1
  15    9   13 1
  16   10   11 2
  17   11   12 1
  18   12   13 2
  19   12   14 1
  20   14   15 ar
  21   14   19 ar
  22   15   16 ar
  23   15   25 1
  24   16   17 ar
  25   16   26 1
  26   17   18 ar
  27   17   27 1
  28   18   19 ar
  29   18   20 1
  30   19   28 1
  31   20   29 1
  32   20   30 1
  33   20   31 1

#	End of record

