#	Name: ASD01884031
#	Creating user name:	WinNT
#	Creation time:	15. 06. 2019 19:47

#	Modifying user name:	WinNT
#	Modification time:	15. 06. 2019 19:47

#	Program:	/corina/corina34_cracker 3.40 0067  02.08.2006

@<TRIPOS>MOLECULE
ASD01884031
  50   54    0    0    0
SMALL
NO_CHARGES


@<TRIPOS>ATOM
   1 C1             0.2530     1.5069     0.0135 C.3     
   2 C2             0.1301     0.0049     0.0012 C.2     
   3 N3             0.0968    -0.7649    -1.0788 N.2     
   4 C4            -0.0170    -2.0303    -0.7203 C.2     
   5 C5            -0.1152    -3.4007    -1.2485 C.2     
   6 O6            -0.1071    -3.7022    -2.4270 O.2     
   7 N7            -0.2150    -4.2681    -0.2244 N.am    
   8 C8            -0.3311    -5.7242    -0.3365 C.3     
   9 C9             1.0657    -6.3487    -0.3359 C.3     
  10 C10            1.4245    -7.2758     0.8272 C.3     
  11 C11            1.1646    -7.8585    -0.5634 C.3     
  12 C12           -0.1861    -3.4983     1.0242 C.3     
  13 N13           -0.0596    -2.0890     0.6467 N.pl3   
  14 C14            0.0385    -0.8099     1.1120 C.2     
  15 C15            0.0430    -0.3812     2.5259 C.ar    
  16 C16           -0.8746    -0.9270     3.4255 C.ar    
  17 C17           -0.8681    -0.5250     4.7443 C.ar    
  18 C18            0.0493     0.4216     5.1794 C.ar    
  19 O19            0.0524     0.8145     6.4801 O.3     
  20 C20           -0.6519     1.9262     6.8115 C.ar    
  21 C21           -0.7501     2.3057     8.1437 C.ar    
  22 C22           -1.4712     3.4414     8.4697 C.ar    
  23 C23           -2.0721     4.1614     7.4442 C.ar    
  24 F24           -2.7846     5.2760     7.7185 F       
  25 C25           -1.9321     3.7241     6.1396 C.ar    
  26 N26           -1.2333     2.6400     5.8618 N.ar    
  27 C27           -2.5803     4.4988     5.0212 C.3     
  28 F28           -1.6894     5.4680     4.5478 F       
  29 F29           -2.9145     3.6248     3.9811 F       
  30 F30           -3.7388     5.1226     5.4965 F       
  31 C31            0.9659     0.9686     4.2869 C.ar    
  32 F32            1.8574     1.8893     4.7145 F       
  33 C33            0.9691     0.5669     2.9671 C.ar    
  34 H34            1.3066     1.7850     0.0392 H       
  35 H35           -0.2091     1.9166    -0.8847 H       
  36 H36           -0.2496     1.9053     0.8948 H       
  37 H37           -0.9017    -6.1094     0.5085 H       
  38 H38           -0.8419    -5.9775    -1.2655 H       
  39 H39            1.8598    -5.7248    -0.7461 H       
  40 H40            2.4548    -7.2619     1.1825 H       
  41 H41            0.6655    -7.4408     1.5919 H       
  42 H42            0.2346    -8.4068    -0.7136 H       
  43 H43            2.0240    -8.2279    -1.1230 H       
  44 H44           -1.1107    -3.6541     1.5800 H       
  45 H45            0.6687    -3.8006     1.6291 H       
  46 H46           -1.5893    -1.6634     3.0885 H       
  47 H47           -1.5783    -0.9471     5.4400 H       
  48 H48           -0.2704     1.7221     8.9155 H       
  49 H49           -1.5650     3.7603     9.4972 H       
  50 H50            1.6837     0.9879     2.2753 H       
@<TRIPOS>BOND
   1    1    2 1
   2    1   34 1
   3    1   35 1
   4    1   36 1
   5    2   14 2
   6    2    3 1
   7    3    4 2
   8    4   13 1
   9    4    5 1
  10    5    6 2
  11    5    7 am
  12    7    8 1
  13    7   12 1
  14    8    9 1
  15    8   37 1
  16    8   38 1
  17    9   11 1
  18    9   10 1
  19    9   39 1
  20   10   11 1
  21   10   40 1
  22   10   41 1
  23   11   42 1
  24   11   43 1
  25   12   13 1
  26   12   44 1
  27   12   45 1
  28   13   14 1
  29   14   15 1
  30   15   33 ar
  31   15   16 ar
  32   16   17 ar
  33   16   46 1
  34   17   18 ar
  35   17   47 1
  36   18   19 1
  37   18   31 ar
  38   19   20 1
  39   20   26 ar
  40   20   21 ar
  41   21   22 ar
  42   21   48 1
  43   22   23 ar
  44   22   49 1
  45   23   24 1
  46   23   25 ar
  47   25   26 ar
  48   25   27 1
  49   27   28 1
  50   27   29 1
  51   27   30 1
  52   31   32 1
  53   31   33 ar
  54   33   50 1

#	End of record

