#	Name: ASD00100103
#	Creating user name:	WinNT
#	Creation time:	15. 06. 2019 18:30

#	Modifying user name:	WinNT
#	Modification time:	15. 06. 2019 18:30

#	Program:	/corina/corina34_cracker 3.40 0067  02.08.2006

@<TRIPOS>MOLECULE
ASD00100103
  42   44    0    0    0
SMALL
NO_CHARGES


@<TRIPOS>ATOM
   1 N1            -0.1488     1.5798     0.3563 N.pl3   
   2 N2             0.7932    -1.8230    -0.1070 N.pl3   
   3 N3             1.0993    -0.4641     0.0406 N.2     
   4 C4            -0.0259     0.1970     0.1819 C.2     
   5 C5            -1.0852    -0.7238     0.1284 C.2     
   6 C6            -0.5566    -1.9562    -0.0495 C.2     
   7 C7             1.7176    -2.8618    -0.2883 C.ar    
   8 C8             3.0768    -2.5819    -0.3340 C.ar    
   9 C9             3.9865    -3.6051    -0.5121 C.ar    
  10 C10            3.5427    -4.9129    -0.6454 C.ar    
  11 C11            2.1847    -5.1932    -0.5998 C.ar    
  12 C12            1.2744    -4.1714    -0.4165 C.ar    
  13 O13            4.4389    -5.9199    -0.8212 O.3     
  14 C14            3.9120    -7.2419    -0.9513 C.3     
  15 C15           -2.5514    -0.3968     0.2486 C.3     
  16 C16           -3.0917    -0.0071    -1.1031 C.ar    
  17 C17           -3.5209    -0.9859    -1.9879 C.ar    
  18 C18           -4.0177    -0.6240    -3.2314 C.ar    
  19 C19           -4.0839     0.7097    -3.5860 C.ar    
  20 C20           -3.6551     1.6831    -2.7029 C.ar    
  21 C21           -3.1652     1.3252    -1.4602 C.ar    
  22 O22           -3.4543    -2.2971    -1.6369 O.3     
  23 C23           -3.9137    -3.2500    -2.5976 C.3     
  24 H24            0.6453     2.1307     0.4394 H       
  25 H25           -1.0280     1.9882     0.3900 H       
  26 H26           -1.1093    -2.8805    -0.1308 H       
  27 H27            3.4224    -1.5639    -0.2306 H       
  28 H28            5.0437    -3.3875    -0.5480 H       
  29 H29            1.8398    -6.2113    -0.7040 H       
  30 H30            0.2175    -4.3903    -0.3766 H       
  31 H31            3.3534    -7.5005    -0.0517 H       
  32 H32            3.2492    -7.2854    -1.8155 H       
  33 H33            4.7314    -7.9480    -1.0858 H       
  34 H34           -3.0895    -1.2702     0.6170 H       
  35 H35           -2.6830     0.4314     0.9451 H       
  36 H36           -4.3521    -1.3841    -3.9219 H       
  37 H37           -4.4706     0.9921    -4.5541 H       
  38 H38           -3.7070     2.7251    -2.9822 H       
  39 H39           -2.8354     2.0877    -0.7702 H       
  40 H40           -3.3230    -3.1606    -3.5092 H       
  41 H41           -3.8057    -4.2560    -2.1919 H       
  42 H42           -4.9629    -3.0605    -2.8244 H       
@<TRIPOS>BOND
   1    1    4 1
   2    1   24 1
   3    1   25 1
   4    2    3 1
   5    2    6 1
   6    2    7 1
   7    3    4 2
   8    4    5 1
   9    5    6 2
  10    5   15 1
  11    6   26 1
  12    7    8 ar
  13    7   12 ar
  14    8    9 ar
  15    8   27 1
  16    9   10 ar
  17    9   28 1
  18   10   11 ar
  19   10   13 1
  20   11   12 ar
  21   11   29 1
  22   12   30 1
  23   13   14 1
  24   14   31 1
  25   14   32 1
  26   14   33 1
  27   15   16 1
  28   15   34 1
  29   15   35 1
  30   16   17 ar
  31   16   21 ar
  32   17   18 ar
  33   17   22 1
  34   18   19 ar
  35   18   36 1
  36   19   20 ar
  37   19   37 1
  38   20   21 ar
  39   20   38 1
  40   21   39 1
  41   22   23 1
  42   23   40 1
  43   23   41 1
  44   23   42 1

#	End of record

