#	Name: ASD03090592
#	Creating user name:	WinNT
#	Creation time:	15. 06. 2019 20:29

#	Modifying user name:	WinNT
#	Modification time:	15. 06. 2019 20:29

#	Program:	/corina/corina34_cracker 3.40 0067  02.08.2006

@<TRIPOS>MOLECULE
ASD03090592
  32   33    0    0    0
SMALL
NO_CHARGES


@<TRIPOS>ATOM
   1 N1            -0.1473     1.3406     0.5513 N.am    
   2 C2            -0.1349    -0.0071     0.5595 C.2     
   3 O3             0.7974    -0.6034     1.0632 O.2     
   4 N4            -1.1558    -0.6938     0.0094 N.am    
   5 C5            -1.0872    -2.0919    -0.0919 C.ar    
   6 C6            -2.2453    -2.8566     0.0244 C.ar    
   7 C7            -2.1754    -4.2362    -0.0764 C.ar    
   8 C8            -0.9532    -4.8543    -0.2929 C.ar    
   9 C9             0.2011    -4.0912    -0.4083 C.ar    
  10 C10            0.1330    -2.7126    -0.3137 C.ar    
  11 O11           -0.8849    -6.2092    -0.3918 O.3     
  12 C12           -2.1110    -6.9317    -0.2629 C.3     
  13 O13           -3.4436    -2.2494     0.2372 O.3     
  14 C14           -4.5896    -3.0960     0.3464 C.3     
  15 F15            1.3911    -4.6952    -0.6188 F       
  16 S16            1.0195     3.7538     1.1783 S.3     
  17 C17            0.9059     2.0490     1.1189 C.2     
  18 N18            1.9438     1.5129     1.6795 N.2     
  19 C19            2.8522     2.3379     2.1687 C.2     
  20 C20            2.5661     3.6327     2.0130 C.2     
  21 Cl21           3.5470     4.9643     2.5408 Cl      
  22 H22           -0.8892     1.8163     0.1460 H       
  23 H23           -1.9380    -0.2217    -0.3165 H       
  24 H24           -3.0727    -4.8304     0.0140 H       
  25 H25            1.0309    -2.1199    -0.4081 H       
  26 H26           -2.5499    -6.7312     0.7145 H       
  27 H27           -2.8028    -6.6156    -1.0436 H       
  28 H28           -1.9155    -7.9995    -0.3612 H       
  29 H29           -4.7096    -3.6658    -0.5750 H       
  30 H30           -4.4562    -3.7819     1.1830 H       
  31 H31           -5.4772    -2.4861     0.5146 H       
  32 H32            3.7526     1.9932     2.6553 H       
@<TRIPOS>BOND
   1    1    2 am
   2    1   17 1
   3    1   22 1
   4    2    3 2
   5    2    4 am
   6    4    5 1
   7    4   23 1
   8    5    6 ar
   9    5   10 ar
  10    6    7 ar
  11    6   13 1
  12    7    8 ar
  13    7   24 1
  14    8    9 ar
  15    8   11 1
  16    9   10 ar
  17    9   15 1
  18   10   25 1
  19   11   12 1
  20   12   26 1
  21   12   27 1
  22   12   28 1
  23   13   14 1
  24   14   29 1
  25   14   30 1
  26   14   31 1
  27   16   17 1
  28   16   20 1
  29   17   18 2
  30   18   19 1
  31   19   20 2
  32   19   32 1
  33   20   21 1

#	End of record

