#	Name: ASD08150012
#	Creating user name:	WinNT
#	Creation time:	15. 06. 2019 21:15

#	Modifying user name:	WinNT
#	Modification time:	15. 06. 2019 21:15

#	Program:	/corina/corina34_cracker 3.40 0067  02.08.2006

@<TRIPOS>MOLECULE
ASD08150012
  45   49    0    0    0
SMALL
NO_CHARGES


@<TRIPOS>ATOM
   1 N1            -0.0157     1.2952    -0.0516 N.2     
   2 C2             0.0018    -0.0026    -0.0877 C.2     
   3 N3             1.1484    -0.7346    -0.1051 N.am    
   4 C4             2.3558    -0.1234    -0.0845 C.2     
   5 C5             2.3702     1.3460    -0.0436 C.ar    
   6 C6             3.5601     2.0709    -0.0203 C.ar    
   7 C7             3.5158     3.4472     0.0173 C.ar    
   8 C8             2.2979     4.1146     0.0327 C.ar    
   9 C9             1.1111     3.4173     0.0102 C.ar    
  10 C10            1.1296     2.0215    -0.0285 C.ar    
  11 O11            3.3899    -0.7656    -0.0989 O.2     
  12 C12           -1.3149    -0.7353    -0.1110 C.3     
  13 S13           -2.6721     0.4618    -0.0807 S.3     
  14 N14           -5.9170     1.0955    -0.0703 N.2     
  15 C15           -7.2143     0.9913    -0.0760 C.2     
  16 N16           -7.5755    -0.3227    -0.1127 N.pl3   
  17 C17           -6.4224    -1.0659    -0.1305 C.ar    
  18 N18           -6.1436    -2.3650    -0.1658 N.ar    
  19 C19           -4.8953    -2.7837    -0.1748 C.ar    
  20 N20           -3.8691    -1.9536    -0.1505 N.ar    
  21 C21           -4.0496    -0.6365    -0.1143 C.ar    
  22 C22           -5.3651    -0.1410    -0.1029 C.ar    
  23 C23            4.8858     1.3543    -0.0358 C.3     
  24 C24            1.0788    -2.1332    -0.1442 C.ar    
  25 C25            1.0410    -2.8621     1.0387 C.ar    
  26 C26            0.9724    -4.2417     0.9961 C.ar    
  27 C27            0.9417    -4.8964    -0.2217 C.ar    
  28 C28            0.9796    -4.1737    -1.3998 C.ar    
  29 C29            1.0416    -2.7940    -1.3644 C.ar    
  30 Cl30           1.0806    -2.0406     2.5675 Cl      
  31 H31            4.4361     4.0121     0.0354 H       
  32 H32            2.2817     5.1941     0.0629 H       
  33 H33            0.1702     3.9473     0.0228 H       
  34 H34           -1.3804    -1.3360    -1.0182 H       
  35 H35           -1.3843    -1.3855     0.7611 H       
  36 H36           -7.9029     1.8229    -0.0548 H       
  37 H37           -8.4816    -0.6688    -0.1242 H       
  38 H38           -4.7038    -3.8462    -0.2034 H       
  39 H39            5.1535     1.1075    -1.0632 H       
  40 H40            5.6522     1.9988     0.3946 H       
  41 H41            4.8105     0.4382     0.5501 H       
  42 H42            0.9430    -4.8090     1.9146 H       
  43 H43            0.8884    -5.9746    -0.2526 H       
  44 H44            0.9563    -4.6882    -2.3490 H       
  45 H45            1.0659    -2.2302    -2.2852 H       
@<TRIPOS>BOND
   1    1    2 2
   2    1   10 1
   3    2    3 1
   4    2   12 1
   5    3    4 am
   6    3   24 1
   7    4    5 1
   8    4   11 2
   9    5    6 ar
  10    5   10 ar
  11    6    7 ar
  12    6   23 1
  13    7    8 ar
  14    7   31 1
  15    8    9 ar
  16    8   32 1
  17    9   10 ar
  18    9   33 1
  19   12   13 1
  20   12   34 1
  21   12   35 1
  22   13   21 1
  23   14   15 2
  24   14   22 1
  25   15   16 1
  26   15   36 1
  27   16   17 1
  28   16   37 1
  29   17   18 ar
  30   17   22 ar
  31   18   19 ar
  32   19   20 ar
  33   19   38 1
  34   20   21 ar
  35   21   22 ar
  36   23   39 1
  37   23   40 1
  38   23   41 1
  39   24   25 ar
  40   24   29 ar
  41   25   26 ar
  42   25   30 1
  43   26   27 ar
  44   26   42 1
  45   27   28 ar
  46   27   43 1
  47   28   29 ar
  48   28   44 1
  49   29   45 1

#	End of record

