#	Name: ASD01880294
#	Creating user name:	WinNT
#	Creation time:	15. 06. 2019 19:40

#	Modifying user name:	WinNT
#	Modification time:	15. 06. 2019 19:40

#	Program:	/corina/corina34_cracker 3.40 0067  02.08.2006

@<TRIPOS>MOLECULE
ASD01880294
  44   46    0    0    0
SMALL
NO_CHARGES


@<TRIPOS>ATOM
   1 C1            -0.0163     1.3493     0.0095 C.2     
   2 C2             0.0021    -0.0041     0.0020 C.2     
   3 N3            -1.1557    -0.7131     0.0093 N.am    
   4 C4            -2.3471    -0.0857     0.0245 C.2     
   5 C5            -2.4025     1.3185     0.0330 C.2     
   6 C6            -1.2403     2.0325     0.0307 C.2     
   7 O7            -3.3795    -0.7370     0.0305 O.2     
   8 C8            -1.1083    -2.1773    -0.0000 C.3     
   9 C9            -1.0779    -2.6879     1.4175 C.ar    
  10 C10           -2.2497    -2.7649     2.1508 C.ar    
  11 C11           -2.2208    -3.2342     3.4531 C.ar    
  12 C12           -1.0216    -3.6254     4.0199 C.ar    
  13 C13            0.1487    -3.5477     3.2855 C.ar    
  14 C14            0.1191    -3.0846     1.9837 C.ar    
  15 Cl15          -0.9842    -4.2134     5.6529 Cl      
  16 F16           -3.4205    -2.3821     1.5961 F       
  17 C17            1.2781     2.1210     0.0012 C.3     
  18 C18            1.6380     2.4979    -1.4373 C.3     
  19 C19            2.9521     3.2815    -1.4456 C.3     
  20 C20            3.3067     3.6527    -2.8625 C.ar    
  21 C21            2.8596     4.8467    -3.3967 C.ar    
  22 C22            3.1847     5.1872    -4.6964 C.ar    
  23 C23            3.9574     4.3339    -5.4617 C.ar    
  24 C24            4.4052     3.1403    -4.9273 C.ar    
  25 C25            4.0837     2.8018    -3.6261 C.ar    
  26 H26            0.9478    -0.5255    -0.0102 H       
  27 H27           -3.3553     1.8270     0.0449 H       
  28 H28           -1.2628     3.1122     0.0372 H       
  29 H29           -1.9911    -2.5662    -0.5074 H       
  30 H30           -0.2122    -2.5085    -0.5248 H       
  31 H31           -3.1343    -3.2944     4.0261 H       
  32 H32            1.0851    -3.8533     3.7284 H       
  33 H33            1.0330    -3.0243     1.4113 H       
  34 H34            1.1647     3.0270     0.5967 H       
  35 H35            2.0712     1.5048     0.4247 H       
  36 H36            1.7514     1.5920    -2.0327 H       
  37 H37            0.8449     3.1141    -1.8607 H       
  38 H38            2.8388     4.1874    -0.8502 H       
  39 H39            3.7453     2.6652    -1.0221 H       
  40 H40            2.2559     5.5134    -2.7987 H       
  41 H41            2.8348     6.1197    -5.1139 H       
  42 H42            4.2108     4.5996    -6.4774 H       
  43 H43            5.0086     2.4734    -5.5253 H       
  44 H44            4.4336     1.8693    -3.2085 H       
@<TRIPOS>BOND
   1    1    2 2
   2    1   17 1
   3    1    6 1
   4    2    3 1
   5    2   26 1
   6    3    4 am
   7    3    8 1
   8    4    5 1
   9    4    7 2
  10    5    6 2
  11    5   27 1
  12    6   28 1
  13    8    9 1
  14    8   29 1
  15    8   30 1
  16    9   10 ar
  17    9   14 ar
  18   10   11 ar
  19   10   16 1
  20   11   12 ar
  21   11   31 1
  22   12   13 ar
  23   12   15 1
  24   13   14 ar
  25   13   32 1
  26   14   33 1
  27   17   18 1
  28   17   34 1
  29   17   35 1
  30   18   19 1
  31   18   36 1
  32   18   37 1
  33   19   20 1
  34   19   38 1
  35   19   39 1
  36   20   21 ar
  37   20   25 ar
  38   21   22 ar
  39   21   40 1
  40   22   23 ar
  41   22   41 1
  42   23   24 ar
  43   23   42 1
  44   24   25 ar
  45   24   43 1
  46   25   44 1

#	End of record

