#	Name: ASD01900150
#	Creating user name:	WinNT
#	Creation time:	15. 06. 2019 19:51

#	Modifying user name:	WinNT
#	Modification time:	15. 06. 2019 19:51

#	Program:	/corina/corina34_cracker 3.40 0067  02.08.2006

@<TRIPOS>MOLECULE
ASD01900150
  67   71    0    0    0
SMALL
NO_CHARGES


@<TRIPOS>ATOM
   1 C1             0.1580     1.3071     0.4918 C.ar    
   2 C2             0.2100    -0.0692     0.4641 C.ar    
   3 C3             1.4110    -0.7249     0.1769 C.ar    
   4 C4             2.5680     0.0103    -0.0782 C.ar    
   5 C5             2.5196     1.3929    -0.0480 C.ar    
   6 C6             1.3080     2.0489     0.2316 C.ar    
   7 N7             3.6514     2.1676    -0.2802 N.pl3   
   8 C8             3.4864     3.5126    -0.8431 C.3     
   9 N9             2.3736     4.2024    -0.1897 N.am    
  10 C10            1.2952     3.5246     0.2510 C.2     
  11 C11            4.7761     4.3105    -0.6294 C.3     
  12 C12            3.2080     3.4023    -2.3448 C.3     
  13 C13            3.1080     4.8068    -2.9444 C.3     
  14 N14            4.3648     5.5302    -2.7131 N.3     
  15 C15            4.6298     5.6891    -1.2775 C.3     
  16 C16            2.4301     5.5910    -0.0192 C.ar    
  17 C17            1.7085     6.4245    -0.8637 C.ar    
  18 C18            1.7647     7.7938    -0.6950 C.ar    
  19 C19            2.5418     8.3370     0.3178 C.ar    
  20 C20            3.2629     7.5050     1.1618 C.ar    
  21 C21            3.2032     6.1352     0.9979 C.ar    
  22 C22            4.7268     6.3877    -5.8290 C.ar    
  23 C23            3.8435     6.6594    -4.8007 C.ar    
  24 C24            4.3559     6.8318    -3.3941 C.3     
  25 C25            4.2593     6.2295    -7.1200 C.ar    
  26 C26            2.9054     6.3431    -7.3845 C.ar    
  27 C27            2.0196     6.6156    -6.3533 C.ar    
  28 C28            2.4910     6.7734    -5.0616 C.ar    
  29 C29            1.4544    -2.2034     0.1442 C.2     
  30 O30            0.3382    -2.9156     0.3908 O.3     
  31 O31            2.4966    -2.7748    -0.1050 O.2     
  32 C32            0.4548    -4.3620     0.3417 C.3     
  33 C33           -0.9051    -4.9939     0.6457 C.3     
  34 O34            0.3199     4.1239     0.6611 O.2     
  35 O35            2.5971     9.6855     0.4830 O.3     
  36 C36            3.4170    10.1758     1.5457 C.3     
  37 F37            2.4477     6.1891    -8.6463 F       
  38 F38            0.6978     6.7274    -6.6092 F       
  39 H39           -0.7727     1.8096     0.7102 H       
  40 H40           -0.6814    -0.6447     0.6655 H       
  41 H41            3.4962    -0.4963    -0.2978 H       
  42 H42            4.5348     1.8246    -0.0731 H       
  43 H43            4.9586     4.4280     0.4388 H       
  44 H44            5.6120     3.7805    -1.0860 H       
  45 H45            4.0203     2.8579    -2.8265 H       
  46 H46            2.2693     2.8714    -2.5029 H       
  47 H47            2.9241     4.7318    -4.0161 H       
  48 H48            2.2867     5.3456    -2.4720 H       
  49 H49            3.8014     6.2232    -0.8121 H       
  50 H50            5.5507     6.2554    -1.1386 H       
  51 H51            1.1037     6.0018    -1.6524 H       
  52 H52            1.2039     8.4422    -1.3518 H       
  53 H53            3.8680     7.9286     1.9497 H       
  54 H54            3.7611     5.4874     1.6579 H       
  55 H55            5.7838     6.3034    -5.6240 H       
  56 H56            3.7072     7.5206    -2.8529 H       
  57 H57            5.3687     7.2336    -3.4230 H       
  58 H58            4.9504     6.0177    -7.9225 H       
  59 H59            1.8019     6.9853    -4.2574 H       
  60 H60            0.7829    -4.6666    -0.6521 H       
  61 H61            1.1830    -4.6932     1.0821 H       
  62 H62           -0.8175    -6.0798     0.6089 H       
  63 H63           -1.2332    -4.6894     1.6396 H       
  64 H64           -1.6333    -4.6628    -0.0946 H       
  65 H65            3.3719    11.2647     1.5666 H       
  66 H66            3.0572     9.7790     2.4950 H       
  67 H67            4.4473     9.8579     1.3860 H       
@<TRIPOS>BOND
   1    1    2 ar
   2    1    6 ar
   3    1   39 1
   4    2    3 ar
   5    2   40 1
   6    3   29 1
   7    3    4 ar
   8    4    5 ar
   9    4   41 1
  10    5    7 1
  11    5    6 ar
  12    6   10 1
  13    7    8 1
  14    7   42 1
  15    8    9 1
  16    8   12 1
  17    8   11 1
  18    9   10 am
  19    9   16 1
  20   10   34 2
  21   11   15 1
  22   11   43 1
  23   11   44 1
  24   12   13 1
  25   12   45 1
  26   12   46 1
  27   13   14 1
  28   13   47 1
  29   13   48 1
  30   14   15 1
  31   14   24 1
  32   15   49 1
  33   15   50 1
  34   16   17 ar
  35   16   21 ar
  36   17   18 ar
  37   17   51 1
  38   18   19 ar
  39   18   52 1
  40   19   20 ar
  41   19   35 1
  42   20   21 ar
  43   20   53 1
  44   21   54 1
  45   22   25 ar
  46   22   23 ar
  47   22   55 1
  48   23   24 1
  49   23   28 ar
  50   24   56 1
  51   24   57 1
  52   25   26 ar
  53   25   58 1
  54   26   27 ar
  55   26   37 1
  56   27   28 ar
  57   27   38 1
  58   28   59 1
  59   29   30 1
  60   29   31 2
  61   30   32 1
  62   32   33 1
  63   32   60 1
  64   32   61 1
  65   33   62 1
  66   33   63 1
  67   33   64 1
  68   35   36 1
  69   36   65 1
  70   36   66 1
  71   36   67 1

#	End of record

