#	Name: ASD02560359
#	Creating user name:	WinNT
#	Creation time:	15. 06. 2019 20:25

#	Modifying user name:	WinNT
#	Modification time:	15. 06. 2019 20:25

#	Program:	/corina/corina34_cracker 3.40 0067  02.08.2006

@<TRIPOS>MOLECULE
ASD02560359
  44   47    0    0    0
SMALL
NO_CHARGES


@<TRIPOS>ATOM
   1 C1             0.0992     1.3931     0.9592 C.2     
   2 C2             0.0806     0.0043     0.7391 C.2     
   3 C3             1.2259    -0.6612     0.4886 C.2     
   4 N4             2.4223     0.0029     0.4448 N.pl3   
   5 C5             2.4717     1.3620     0.6558 C.2     
   6 C6             1.2786     2.0680     0.9188 C.2     
   7 C7             3.7025    -0.4201     0.2166 C.2     
   8 C8             4.5108     0.6943     0.2934 C.2     
   9 N9             3.7307     1.7574     0.5612 N.2     
  10 C10            5.9817     0.7171     0.1134 C.ar    
  11 N11            4.1124    -1.7289    -0.0436 N.3     
  12 C12            2.9890    -2.6671     0.0818 C.3     
  13 C13            3.4963    -4.0795    -0.0562 C.ar    
  14 C14            3.9047    -4.7796     1.0636 C.ar    
  15 C15            6.5945     1.8124    -0.4947 C.ar    
  16 C16            7.9636     1.8302    -0.6607 C.ar    
  17 C17            8.7314     0.7595    -0.2237 C.ar    
  18 C18            8.1247    -0.3323     0.3820 C.ar    
  19 C19            6.7568    -0.3541     0.5568 C.ar    
  20 O20           10.0803     0.7800    -0.3897 O.3     
  21 C21           10.8094    -0.3544     0.0831 C.3     
  22 C22            4.3701    -6.0751     0.9371 C.ar    
  23 C23            4.4266    -6.6706    -0.3091 C.ar    
  24 C24            4.0173    -5.9708    -1.4288 C.ar    
  25 C25            3.5479    -4.6768    -1.3017 C.ar    
  26 H26           -0.8213     1.9228     1.1554 H       
  27 H27           -0.8563    -0.5321     0.7711 H       
  28 H28            1.1994    -1.7278     0.3214 H       
  29 H29            1.3022     3.1346     1.0863 H       
  30 H30            4.5422    -1.7990    -0.9537 H       
  31 H31            2.5194    -2.5434     1.0576 H       
  32 H32            2.2581    -2.4655    -0.7013 H       
  33 H33            3.8605    -4.3144     2.0373 H       
  34 H34            5.9977     2.6454    -0.8356 H       
  35 H35            8.4388     2.6780    -1.1316 H       
  36 H36            8.7251    -1.1636     0.7208 H       
  37 H37            6.2855    -1.2039     1.0281 H       
  38 H38           10.4643    -1.2496    -0.4342 H       
  39 H39           11.8723    -0.2098    -0.1107 H       
  40 H40           10.6479    -0.4692     1.1550 H       
  41 H41            4.6898    -6.6219     1.8118 H       
  42 H42            4.7908    -7.6825    -0.4081 H       
  43 H43            4.0618    -6.4359    -2.4025 H       
  44 H44            3.2281    -4.1300    -2.1765 H       
@<TRIPOS>BOND
   1    1    2 1
   2    1    6 2
   3    1   26 1
   4    2    3 2
   5    2   27 1
   6    3    4 1
   7    3   28 1
   8    4    5 1
   9    4    7 1
  10    5    6 1
  11    5    9 2
  12    6   29 1
  13    7    8 2
  14    7   11 1
  15    8    9 1
  16    8   10 1
  17   10   15 ar
  18   10   19 ar
  19   11   12 1
  20   11   30 1
  21   12   13 1
  22   12   31 1
  23   12   32 1
  24   13   14 ar
  25   13   25 ar
  26   14   22 ar
  27   14   33 1
  28   15   16 ar
  29   15   34 1
  30   16   17 ar
  31   16   35 1
  32   17   18 ar
  33   17   20 1
  34   18   19 ar
  35   18   36 1
  36   19   37 1
  37   20   21 1
  38   21   38 1
  39   21   39 1
  40   21   40 1
  41   22   23 ar
  42   22   41 1
  43   23   24 ar
  44   23   42 1
  45   24   25 ar
  46   24   43 1
  47   25   44 1

#	End of record

