#	Name: ASD05430721
#	Creating user name:	WinNT
#	Creation time:	15. 06. 2019 21:00

#	Modifying user name:	WinNT
#	Modification time:	15. 06. 2019 21:00

#	Program:	/corina/corina34_cracker 3.40 0067  02.08.2006

@<TRIPOS>MOLECULE
ASD05430721
  57   61    0    0    0
SMALL
NO_CHARGES


@<TRIPOS>ATOM
   1 C1            -0.0897     1.2823    -0.0117 C.2     
   2 C2             0.0958    -0.1060    -0.0171 C.2     
   3 C3            -1.0270    -0.9513    -0.0351 C.2     
   4 N4            -2.2336    -0.4612    -0.0467 N.2     
   5 N5            -2.4793     0.9141    -0.0421 N.am    
   6 C6            -1.4583     1.7983    -0.0202 C.2     
   7 O7            -1.6726     2.9990    -0.0157 O.2     
   8 C8            -3.8603     1.4030    -0.0558 C.3     
   9 C9            -4.5668     0.9001    -1.3163 C.3     
  10 C10           -4.5854     0.8941     1.1634 C.ar    
  11 C11           -5.4608     1.7212     1.8414 C.ar    
  12 C12           -6.1277     1.2547     2.9618 C.ar    
  13 C13           -5.9172    -0.0404     3.4026 C.ar    
  14 C14           -5.0402    -0.8679     2.7227 C.ar    
  15 C15           -4.3788    -0.4010     1.5993 C.ar    
  16 N16            1.1253     1.8533     0.0063 N.2     
  17 C17            2.0481     0.9196     0.0124 C.2     
  18 N18            1.4512    -0.3125    -0.0017 N.pl3   
  19 F19           -4.8335    -2.1320     3.1520 F       
  20 F20           -6.9830     2.0635     3.6247 F       
  21 C21            3.5062     1.1612     0.0315 C.ar    
  22 C22            4.0144     2.4022    -0.3557 C.ar    
  23 C23            5.3790     2.6240    -0.3359 C.ar    
  24 C24            6.2439     1.6089     0.0705 C.ar    
  25 C25            5.7373     0.3747     0.4555 C.ar    
  26 C26            4.3772     0.1502     0.4425 C.ar    
  27 N27            7.6272     1.8343     0.0899 N.pl3   
  28 C28            8.3754     2.3502    -0.9195 C.2     
  29 N29            9.6190     2.4086    -0.5271 N.2     
  30 C30            9.7119     1.9404     0.7263 C.2     
  31 C31            8.4795     1.5813     1.1334 C.2     
  32 C32           10.9760     1.8390     1.5404 C.3     
  33 C33            2.1331    -1.6091    -0.0002 C.3     
  34 O34            5.8773     3.8314    -0.7129 O.3     
  35 C35            4.9334     4.8249    -1.1178 C.3     
  36 H36           -0.8872    -2.0222    -0.0397 H       
  37 H37           -3.8600     2.4930    -0.0497 H       
  38 H38           -4.0424     1.2682    -2.1981 H       
  39 H39           -4.5672    -0.1898    -1.3223 H       
  40 H40           -5.5943     1.2639    -1.3265 H       
  41 H41           -5.6246     2.7318     1.4976 H       
  42 H42           -6.4366    -0.4050     4.2765 H       
  43 H43           -3.6947    -1.0465     1.0684 H       
  44 H44            3.3431     3.1874    -0.6706 H       
  45 H45            6.4099    -0.4097     0.7698 H       
  46 H46            3.9858    -0.8106     0.7425 H       
  47 H47            8.0037     2.6601    -1.8850 H       
  48 H48            8.2145     1.1670     2.0950 H       
  49 H49           11.1211     2.7615     2.1025 H       
  50 H50           10.8963     1.0006     2.2323 H       
  51 H51           11.8250     1.6816     0.8751 H       
  52 H52            2.3837    -1.8866     1.0237 H       
  53 H53            1.4770    -2.3653    -0.4313 H       
  54 H54            3.0460    -1.5402    -0.5918 H       
  55 H55            4.3679     4.4607    -1.9756 H       
  56 H56            4.2503     5.0341    -0.2946 H       
  57 H57            5.4620     5.7379    -1.3922 H       
@<TRIPOS>BOND
   1    1    2 2
   2    1   16 1
   3    1    6 1
   4    2    3 1
   5    2   18 1
   6    3    4 2
   7    3   36 1
   8    4    5 1
   9    5    6 am
  10    5    8 1
  11    6    7 2
  12    8    9 1
  13    8   10 1
  14    8   37 1
  15    9   38 1
  16    9   39 1
  17    9   40 1
  18   10   11 ar
  19   10   15 ar
  20   11   12 ar
  21   11   41 1
  22   12   13 ar
  23   12   20 1
  24   13   14 ar
  25   13   42 1
  26   14   15 ar
  27   14   19 1
  28   15   43 1
  29   16   17 2
  30   17   18 1
  31   17   21 1
  32   18   33 1
  33   21   22 ar
  34   21   26 ar
  35   22   23 ar
  36   22   44 1
  37   23   24 ar
  38   23   34 1
  39   24   25 ar
  40   24   27 1
  41   25   26 ar
  42   25   45 1
  43   26   46 1
  44   27   28 1
  45   27   31 1
  46   28   29 2
  47   28   47 1
  48   29   30 1
  49   30   31 2
  50   30   32 1
  51   31   48 1
  52   32   49 1
  53   32   50 1
  54   32   51 1
  55   33   52 1
  56   33   53 1
  57   33   54 1
  58   34   35 1
  59   35   55 1
  60   35   56 1
  61   35   57 1

#	End of record

