#	Name: ASD01680052
#	Creating user name:	WinNT
#	Creation time:	15. 06. 2019 19:22

#	Modifying user name:	WinNT
#	Modification time:	15. 06. 2019 19:22

#	Program:	/corina/corina34_cracker 3.40 0067  02.08.2006

@<TRIPOS>MOLECULE
ASD01680052
  91   95    0    0    0
SMALL
NO_CHARGES


@<TRIPOS>ATOM
   1 N1            -0.5003    -1.5703    -2.3231 N.am    
   2 C2            -0.2168    -2.9375    -2.7963 C.3     
   3 C3             1.0682    -3.3600    -2.0413 C.3     
   4 C4             1.8624    -2.0276    -2.0081 C.3     
   5 C5             0.7526    -0.9677    -1.8450 C.3     
   6 C6            -1.7070    -0.9703    -2.3326 C.2     
   7 O7            -2.6573    -1.5249    -2.8481 O.2     
   8 O8            -1.8596     0.2438    -1.7708 O.3     
   9 C9            -1.3741    -3.8739    -2.4433 C.3     
  10 N10           -1.7166    -3.7148    -1.0278 N.pl3   
  11 C11           -4.1119    -4.8552     1.3670 C.ar    
  12 N12           -3.1021    -4.2437     0.7941 N.ar    
  13 C13           -2.8046    -4.3993    -0.4938 C.ar    
  14 C14           -3.5502    -5.2233    -1.3122 C.ar    
  15 C15           -4.6451    -5.9065    -0.7582 C.ar    
  16 C16           -5.4541    -6.7629    -1.5208 C.ar    
  17 C17           -6.5025    -7.3986    -0.9282 C.ar    
  18 C18           -6.7845    -7.2116     0.4242 C.ar    
  19 C19           -6.0217    -6.3881     1.1945 C.ar    
  20 C20           -4.9313    -5.7152     0.6196 C.ar    
  21 O21            2.7562    -1.9994    -0.8936 O.3     
  22 C22            3.9382    -1.2276    -1.1158 C.3     
  23 C23            4.8033    -1.2672     0.1175 C.2     
  24 N24            5.9772    -0.6055     0.1388 N.am    
  25 O25            4.4431    -1.8946     1.0910 O.2     
  26 C26            6.8182    -0.6440     1.3377 C.3     
  27 C27            8.0837     0.1823     1.0998 C.3     
  28 N28            7.7114     1.5389     0.6908 N.am    
  29 S29            8.6431     2.3580    -0.4062 S.o2    
  30 O30            8.0072     3.6114    -0.6160 O.2     
  31 O31            9.9875     2.2330     0.0366 O.2     
  32 C32            8.5391     1.4854    -1.9334 C.ar    
  33 C33            9.4317     0.4666    -2.2095 C.ar    
  34 C34            9.3501    -0.2179    -3.4077 C.ar    
  35 C35            8.3757     0.1161    -4.3296 C.ar    
  36 C36            7.4826     1.1343    -4.0531 C.ar    
  37 C37            7.5614     1.8159    -2.8531 C.ar    
  38 C38            6.5845     2.9225    -2.5495 C.3     
  39 C39            8.2875    -0.6295    -5.6362 C.3     
  40 C40           10.4939     0.1025    -1.2045 C.3     
  41 C41            8.8896     0.2444     2.3717 C.2     
  42 O42            9.1284     1.3123     2.8840 O.2     
  43 O43            9.3420    -0.8866     2.9355 O.3     
  44 C44           -3.1873     0.8298    -1.8180 C.3     
  45 C45           -3.1653     2.1782    -1.1455 C.ar    
  46 C46           -2.8897     3.3142    -1.8833 C.ar    
  47 C47           -2.8695     4.5511    -1.2664 C.ar    
  48 C48           -3.1255     4.6520     0.0883 C.ar    
  49 C49           -3.4020     3.5162     0.8260 C.ar    
  50 C50           -3.4264     2.2798     0.2082 C.ar    
  51 H51           -0.0420    -2.9379    -3.8722 H       
  52 H52            0.8344    -3.7007    -1.0326 H       
  53 H53            1.6124    -4.1256    -2.5943 H       
  54 H54            2.4041    -1.8781    -2.9421 H       
  55 H55            0.9911    -0.0865    -2.4407 H       
  56 H56            0.6545    -0.6923    -0.7949 H       
  57 H57           -2.2408    -3.6276    -3.0567 H       
  58 H58           -1.0771    -4.9056    -2.6316 H       
  59 H59           -1.1851    -3.1326    -0.4627 H       
  60 H60           -4.3102    -4.6998     2.4172 H       
  61 H61           -3.2975    -5.3399    -2.3557 H       
  62 H62           -5.2470    -6.9164    -2.5696 H       
  63 H63           -7.1254    -8.0574    -1.5151 H       
  64 H64           -7.6224    -7.7285     0.8682 H       
  65 H65           -6.2535    -6.2532     2.2407 H       
  66 H66            4.4895    -1.6421    -1.9598 H       
  67 H67            3.6627    -0.1956    -1.3333 H       
  68 H68            6.2653    -0.1037    -0.6398 H       
  69 H69            6.2669    -0.2295     2.1817 H       
  70 H70            7.0937    -1.6760     1.5553 H       
  71 H71            8.6794    -0.2833     0.3146 H       
  72 H72            6.9192     1.9573     1.0625 H       
  73 H73           10.0479    -1.0134    -3.6237 H       
  74 H74            6.7215     1.3954    -4.7735 H       
  75 H75            7.0446     3.8849    -2.7734 H       
  76 H76            5.6908     2.7960    -3.1606 H       
  77 H77            6.3115     2.8869    -1.4948 H       
  78 H78            7.6261    -1.4882    -5.5206 H       
  79 H79            7.8919     0.0327    -6.4064 H       
  80 H80            9.2805    -0.9724    -5.9268 H       
  81 H81           10.0608    -0.5330    -0.4321 H       
  82 H82           11.3001    -0.4331    -1.7058 H       
  83 H83           10.8893     1.0103    -0.7486 H       
  84 H84            9.8544    -0.7963     3.7506 H       
  85 H85           -3.4961     0.9468    -2.8567 H       
  86 H86           -3.8910     0.1773    -1.3010 H       
  87 H87           -2.6898     3.2353    -2.9417 H       
  88 H88           -2.6535     5.4385    -1.8428 H       
  89 H89           -3.1090     5.6183     0.5704 H       
  90 H90           -3.6016     3.5950     1.8844 H       
  91 H91           -3.6461     1.3928     0.7838 H       
@<TRIPOS>BOND
   1    1    2 1
   2    1    5 1
   3    1    6 am
   4    2    3 1
   5    2    9 1
   6    2   51 1
   7    3    4 1
   8    3   52 1
   9    3   53 1
  10    4    5 1
  11    4   21 1
  12    4   54 1
  13    5   55 1
  14    5   56 1
  15    6    7 2
  16    6    8 1
  17    8   44 1
  18    9   10 1
  19    9   57 1
  20    9   58 1
  21   10   13 1
  22   10   59 1
  23   11   12 ar
  24   11   20 ar
  25   11   60 1
  26   12   13 ar
  27   13   14 ar
  28   14   15 ar
  29   14   61 1
  30   15   16 ar
  31   15   20 ar
  32   16   17 ar
  33   16   62 1
  34   17   18 ar
  35   17   63 1
  36   18   19 ar
  37   18   64 1
  38   19   20 ar
  39   19   65 1
  40   21   22 1
  41   22   23 1
  42   22   66 1
  43   22   67 1
  44   23   24 am
  45   23   25 2
  46   24   26 1
  47   24   68 1
  48   26   27 1
  49   26   69 1
  50   26   70 1
  51   27   28 1
  52   27   41 1
  53   27   71 1
  54   28   29 am
  55   28   72 1
  56   29   30 2
  57   29   31 2
  58   29   32 1
  59   32   33 ar
  60   32   37 ar
  61   33   34 ar
  62   33   40 1
  63   34   35 ar
  64   34   73 1
  65   35   36 ar
  66   35   39 1
  67   36   37 ar
  68   36   74 1
  69   37   38 1
  70   38   75 1
  71   38   76 1
  72   38   77 1
  73   39   78 1
  74   39   79 1
  75   39   80 1
  76   40   81 1
  77   40   82 1
  78   40   83 1
  79   41   42 2
  80   41   43 1
  81   43   84 1
  82   44   45 1
  83   44   85 1
  84   44   86 1
  85   45   46 ar
  86   45   50 ar
  87   46   47 ar
  88   46   87 1
  89   47   48 ar
  90   47   88 1
  91   48   49 ar
  92   48   89 1
  93   49   50 ar
  94   49   90 1
  95   50   91 1

#	End of record

