#	Name: ASD08070151
#	Creating user name:	WinNT
#	Creation time:	15. 06. 2019 21:14

#	Modifying user name:	WinNT
#	Modification time:	15. 06. 2019 21:14

#	Program:	/corina/corina34_cracker 3.40 0067  02.08.2006

@<TRIPOS>MOLECULE
ASD08070151
  40   42    0    0    0
SMALL
NO_CHARGES


@<TRIPOS>ATOM
   1 C1            -0.0167     1.3808     0.0096 C.ar    
   2 C2             0.0021    -0.0041     0.0020 C.ar    
   3 C3             1.2026    -0.6864    -0.0132 C.ar    
   4 C4             2.3998     0.0133    -0.0204 C.ar    
   5 C5             2.3850     1.4150    -0.0128 C.ar    
   6 C6             1.1637     2.0924     0.0022 C.ar    
   7 O7             3.5799    -0.6556    -0.0344 O.3     
   8 N8             3.6337     3.5180    -0.0125 N.am    
   9 C9             3.6524     2.1703    -0.0199 C.2     
  10 C10            5.9753     3.3280    -2.0419 C.ar    
  11 C11            5.3697     4.4235    -1.4396 C.ar    
  12 C12            4.8921     4.2680    -0.0195 C.3     
  13 C13            6.4278     3.4045    -3.3427 C.ar    
  14 C14            6.2760     4.5801    -4.0543 C.ar    
  15 C15            5.6761     5.6694    -3.4576 C.ar    
  16 C16            5.2236     5.5958    -2.1463 C.ar    
  17 C17            4.5924     6.8275    -1.5518 C.3     
  18 C18            3.7810     6.4686    -0.3086 C.3     
  19 C19            4.6674     5.6348     0.6240 C.3     
  20 O20            4.7136     1.5771    -0.0324 O.2     
  21 C21            3.9721     5.4599     1.9756 C.3     
  22 H22           -0.9606     1.9056     0.0170 H       
  23 H23           -0.9277    -0.5536     0.0083 H       
  24 H24            1.2091    -1.7663    -0.0190 H       
  25 H25            1.1443     3.1722     0.0078 H       
  26 H26            3.9140    -0.8451    -0.9218 H       
  27 H27            2.7870     3.9912    -0.0024 H       
  28 H28            6.0967     2.4102    -1.4857 H       
  29 H29            5.6402     3.7202     0.5534 H       
  30 H30            6.8993     2.5491    -3.8036 H       
  31 H31            6.6264     4.6455    -5.0738 H       
  32 H32            5.5575     6.5873    -4.0143 H       
  33 H33            5.3745     7.5358    -1.2784 H       
  34 H34            3.9348     7.2864    -2.2901 H       
  35 H35            3.4675     7.3799     0.2007 H       
  36 H36            2.9043     5.8888    -0.5973 H       
  37 H37            5.6250     6.1359     0.7653 H       
  38 H38            3.0196     4.9502     1.8309 H       
  39 H39            4.6051     4.8669     2.6357 H       
  40 H40            3.7964     6.4382     2.4231 H       
@<TRIPOS>BOND
   1    1    2 ar
   2    1    6 ar
   3    1   22 1
   4    2    3 ar
   5    2   23 1
   6    3    4 ar
   7    3   24 1
   8    4    5 ar
   9    4    7 1
  10    5    6 ar
  11    5    9 1
  12    6   25 1
  13    7   26 1
  14    8    9 am
  15    8   12 1
  16    8   27 1
  17    9   20 2
  18   10   11 ar
  19   10   13 ar
  20   10   28 1
  21   11   12 1
  22   11   16 ar
  23   12   19 1
  24   12   29 1
  25   13   14 ar
  26   13   30 1
  27   14   15 ar
  28   14   31 1
  29   15   16 ar
  30   15   32 1
  31   16   17 1
  32   17   18 1
  33   17   33 1
  34   17   34 1
  35   18   19 1
  36   18   35 1
  37   18   36 1
  38   19   21 1
  39   19   37 1
  40   21   38 1
  41   21   39 1
  42   21   40 1

#	End of record

