#	Name: ASD03730784
#	Creating user name:	WinNT
#	Creation time:	15. 06. 2019 20:44

#	Modifying user name:	WinNT
#	Modification time:	15. 06. 2019 20:44

#	Program:	/corina/corina34_cracker 3.40 0067  02.08.2006

@<TRIPOS>MOLECULE
ASD03730784
  52   57    0    0    0
SMALL
NO_CHARGES


@<TRIPOS>ATOM
   1 C1            -0.0165     1.3637     0.0095 C.2     
   2 C2             0.0021    -0.0041     0.0020 C.2     
   3 C3             1.2736    -0.5298    -0.0129 C.2     
   4 C4             2.2608     0.3729    -0.0175 C.2     
   5 S5             1.6372     1.9609    -0.0030 S.3     
   6 C6            -1.2206     2.1970     0.0200 C.2     
   7 O7            -2.3209     1.6765     0.0226 O.2     
   8 N8            -1.1106     3.5402     0.0268 N.am    
   9 C9            -2.3152     4.3739     0.0373 C.3     
  10 C10           -1.9137     5.8502     0.0433 C.3     
  11 C11           -3.1718     6.7208     0.0543 C.3     
  12 O12            2.6918    10.2830    -2.0951 O.3     
  13 C13            3.4363    11.4920    -2.3344 C.3     
  14 O14            2.4481    12.4075    -2.8427 O.3     
  15 C15            1.2592    11.9932    -2.3137 C.ar    
  16 C16            1.4095    10.6864    -1.8551 C.ar    
  17 C17            0.0414    12.6362    -2.1834 C.ar    
  18 C18           -1.0403    11.9857    -1.5972 C.ar    
  19 C19           -0.8803    10.6776    -1.1504 C.ar    
  20 C20            0.3344    10.0358    -1.2734 C.ar    
  21 O21           -2.3050    12.4376    -1.3597 O.3     
  22 C22           -2.2136    10.2459    -0.6009 C.3     
  23 C23           -3.1775    11.3130    -1.1373 C.3     
  24 N24           -2.7874     8.1345     0.0600 N.am    
  25 C25           -2.5959     8.8668    -1.0554 C.2     
  26 C26           -2.2215    10.1874     0.8979 C.ar    
  27 C27           -1.9637    11.1096     1.8874 C.ar    
  28 C28           -2.0582    10.7429     3.2181 C.ar    
  29 C29           -2.4113     9.4480     3.5518 C.ar    
  30 C30           -2.6695     8.5204     2.5642 C.ar    
  31 C31           -2.5773     8.8808     1.2221 C.ar    
  32 O32           -2.7104     8.4864    -2.2013 O.2     
  33 Cl33          -1.4344    -0.9788     0.0110 Cl      
  34 H34            1.4609    -1.5934    -0.0201 H       
  35 H35            3.3128     0.1289    -0.0286 H       
  36 H36           -0.2337     3.9550     0.0247 H       
  37 H37           -2.9108     4.1629    -0.8509 H       
  38 H38           -2.9020     4.1533     0.9290 H       
  39 H39           -1.3181     6.0612     0.9315 H       
  40 H40           -1.3270     6.0708    -0.8484 H       
  41 H41           -3.7674     6.5099    -0.8339 H       
  42 H42           -3.7586     6.5002     0.9460 H       
  43 H43            3.8648    11.8681    -1.4055 H       
  44 H44            4.2168    11.3207    -3.0757 H       
  45 H45           -0.0708    13.6498    -2.5389 H       
  46 H46            0.4472     9.0232    -0.9153 H       
  47 H47           -3.9391    11.5545    -0.3959 H       
  48 H48           -3.6347    10.9871    -2.0715 H       
  49 H49           -1.6879    12.1202     1.6245 H       
  50 H50           -1.8569    11.4662     3.9945 H       
  51 H51           -2.4849     9.1617     4.5905 H       
  52 H52           -2.9443     7.5110     2.8327 H       
@<TRIPOS>BOND
   1    1    2 2
   2    1    5 1
   3    1    6 1
   4    2    3 1
   5    2   33 1
   6    3    4 2
   7    3   34 1
   8    4    5 1
   9    4   35 1
  10    6    7 2
  11    6    8 am
  12    8    9 1
  13    8   36 1
  14    9   10 1
  15    9   37 1
  16    9   38 1
  17   10   11 1
  18   10   39 1
  19   10   40 1
  20   11   24 1
  21   11   41 1
  22   11   42 1
  23   12   13 1
  24   12   16 1
  25   13   14 1
  26   13   43 1
  27   13   44 1
  28   14   15 1
  29   15   16 ar
  30   15   17 ar
  31   16   20 ar
  32   17   18 ar
  33   17   45 1
  34   18   19 ar
  35   18   21 1
  36   19   20 ar
  37   19   22 1
  38   20   46 1
  39   21   23 1
  40   22   23 1
  41   22   25 1
  42   22   26 1
  43   23   47 1
  44   23   48 1
  45   24   25 am
  46   24   31 1
  47   25   32 2
  48   26   27 ar
  49   26   31 ar
  50   27   28 ar
  51   27   49 1
  52   28   29 ar
  53   28   50 1
  54   29   30 ar
  55   29   51 1
  56   30   31 ar
  57   30   52 1

#	End of record

