#	Name: ASD01917426
#	Creating user name:	WinNT
#	Creation time:	15. 06. 2019 20:09

#	Modifying user name:	WinNT
#	Modification time:	15. 06. 2019 20:09

#	Program:	/corina/corina34_cracker 3.40 0067  02.08.2006

@<TRIPOS>MOLECULE
ASD01917426
  49   53    0    0    0
SMALL
NO_CHARGES


@<TRIPOS>ATOM
   1 C1            -0.0171     1.4104     0.0098 C.ar    
   2 C2             0.0021    -0.0041     0.0020 C.ar    
   3 C3            -1.1918    -0.7250     0.0414 C.ar    
   4 C4            -2.3837    -0.0625     0.0742 C.ar    
   5 C5            -2.4203     1.3391     0.0659 C.ar    
   6 C6            -1.2404     2.0763     0.0357 C.ar    
   7 N7             1.1599     2.0758     0.0021 N.2     
   8 C8             2.3196     1.4678    -0.0397 C.2     
   9 N9             2.4192     0.1195    -0.1575 N.am    
  10 C10            1.3093    -0.6625    -0.0625 C.2     
  11 O11            1.4003    -1.8763    -0.0319 O.2     
  12 C12           -3.7209     2.0384     0.0893 C.2     
  13 C13            3.5359     2.3446     0.1019 C.3     
  14 C14            4.7920     1.6916    -0.4309 C.3     
  15 C15            4.8958     0.2351    -0.0272 C.3     
  16 C16            3.6785    -0.5624    -0.4370 C.3     
  17 C17            6.1338    -0.3755    -0.6870 C.3     
  18 C18            5.0548     0.1518     1.4923 C.3     
  19 S19           -3.9336     3.7829     0.0820 S.3     
  20 C20           -5.6321     3.6279     0.1200 C.2     
  21 C21           -5.9917     2.3294     0.1367 C.2     
  22 C22           -4.9259     1.4366     0.1138 C.2     
  23 C23           -7.4068     1.8891     0.1705 C.ar    
  24 N24           -7.6918     0.5983     0.2865 N.ar    
  25 C25           -8.9367     0.1662     0.3207 C.ar    
  26 C26           -9.9966     1.0486     0.2359 C.ar    
  27 C27           -9.7430     2.4083     0.1135 C.ar    
  28 C28           -8.4276     2.8350     0.0859 C.ar    
  29 H29           -1.1723    -1.8049     0.0457 H       
  30 H30           -3.3068    -0.6221     0.1064 H       
  31 H31           -1.2728     3.1558     0.0317 H       
  32 H32            3.3649     3.2740    -0.4413 H       
  33 H33            3.6808     2.5777     1.1568 H       
  34 H34            4.7909     1.7578    -1.5189 H       
  35 H35            5.6597     2.2278    -0.0466 H       
  36 H36            3.6873    -1.5128     0.0967 H       
  37 H37            3.7367    -0.7645    -1.5065 H       
  38 H38            7.0232     0.1621    -0.3582 H       
  39 H39            6.2173    -1.4243    -0.4024 H       
  40 H40            6.0430    -0.2992    -1.7705 H       
  41 H41            4.1891     0.6067     1.9737 H       
  42 H42            5.1303    -0.8932     1.7929 H       
  43 H43            5.9582     0.6825     1.7927 H       
  44 H44           -6.3243     4.4569     0.1299 H       
  45 H45           -5.0519     0.3640     0.1189 H       
  46 H46           -9.1309    -0.8919     0.4159 H       
  47 H47          -11.0128     0.6841     0.2642 H       
  48 H48          -10.5549     3.1172     0.0452 H       
  49 H49           -8.1945     3.8853    -0.0079 H       
@<TRIPOS>BOND
   1    1    2 ar
   2    1    7 1
   3    1    6 ar
   4    2    3 ar
   5    2   10 1
   6    3    4 ar
   7    3   29 1
   8    4    5 ar
   9    4   30 1
  10    5    6 ar
  11    5   12 1
  12    6   31 1
  13    7    8 2
  14    8    9 1
  15    8   13 1
  16    9   10 am
  17    9   16 1
  18   10   11 2
  19   12   19 1
  20   12   22 2
  21   13   14 1
  22   13   32 1
  23   13   33 1
  24   14   15 1
  25   14   34 1
  26   14   35 1
  27   15   16 1
  28   15   17 1
  29   15   18 1
  30   16   36 1
  31   16   37 1
  32   17   38 1
  33   17   39 1
  34   17   40 1
  35   18   41 1
  36   18   42 1
  37   18   43 1
  38   19   20 1
  39   20   21 2
  40   20   44 1
  41   21   23 1
  42   21   22 1
  43   22   45 1
  44   23   24 ar
  45   23   28 ar
  46   24   25 ar
  47   25   26 ar
  48   25   46 1
  49   26   27 ar
  50   26   47 1
  51   27   28 ar
  52   27   48 1
  53   28   49 1

#	End of record

