#	Name: ASD01915434
#	Creating user name:	WinNT
#	Creation time:	15. 06. 2019 20:05

#	Modifying user name:	WinNT
#	Modification time:	15. 06. 2019 20:05

#	Program:	/corina/corina34_cracker 3.40 0067  02.08.2006

@<TRIPOS>MOLECULE
ASD01915434
  45   49    0    0    0
SMALL
NO_CHARGES


@<TRIPOS>ATOM
   1 N1            -0.0169     1.3936     0.0097 N.pl3   
   2 N2             0.0021    -0.0041     0.0020 N.2     
   3 C3             1.2407    -0.4349    -0.0121 C.2     
   4 C4             2.1134     0.7408    -0.0141 C.ar    
   5 C5             1.2676     1.8669    -0.0000 C.ar    
   6 N6             1.7798     3.0923     0.0017 N.ar    
   7 C7             3.5085     0.9202    -0.0269 C.ar    
   8 C8             4.0014     2.2379    -0.0249 C.ar    
   9 C9             3.0831     3.3083    -0.0096 C.ar    
  10 C10            1.6769    -1.8517    -0.0239 C.ar    
  11 C11            0.9453    -2.8149     0.6691 C.ar    
  12 C12            1.3562    -4.1322     0.6546 C.ar    
  13 C13            2.4920    -4.4976    -0.0454 C.ar    
  14 C14            3.2223    -3.5461    -0.7346 C.ar    
  15 C15            2.8172    -2.2268    -0.7327 C.ar    
  16 C16            4.4276    -0.2392    -0.0414 C.ar    
  17 C17            5.2518    -0.4662    -1.1444 C.ar    
  18 C18            6.1066    -1.5491    -1.1517 C.ar    
  19 C19            6.1477    -2.4091    -0.0686 C.ar    
  20 C20            5.3330    -2.1896     1.0279 C.ar    
  21 C21            4.4780    -1.1071     1.0502 C.ar    
  22 C22            3.5893     4.7004    -0.0070 C.ar    
  23 C23            2.8933     5.6996    -0.6869 C.ar    
  24 C24            3.3703     6.9954    -0.6808 C.ar    
  25 C25            4.5373     7.3028    -0.0016 C.ar    
  26 C26            5.2313     6.3154     0.6738 C.ar    
  27 C27            4.7605     5.0180     0.6801 C.ar    
  28 C28            5.4113     2.4881    -0.0377 C.1     
  29 N29            6.5298     2.6865    -0.0479 N.1     
  30 Cl30           2.5060     8.2411    -1.5263 Cl      
  31 H31           -0.8163     1.9429     0.0166 H       
  32 H32            0.0587    -2.5307     1.2166 H       
  33 H33            0.7902    -4.8793     1.1911 H       
  34 H34            2.8101    -5.5297    -0.0537 H       
  35 H35            4.1086    -3.8370    -1.2788 H       
  36 H36            3.3852    -1.4857    -1.2754 H       
  37 H37            5.2204     0.2042    -1.9905 H       
  38 H38            6.7448    -1.7260    -2.0048 H       
  39 H39            6.8183    -3.2556    -0.0794 H       
  40 H40            5.3696    -2.8648     1.8701 H       
  41 H41            3.8461    -0.9342     1.9088 H       
  42 H42            1.9834     5.4604    -1.2174 H       
  43 H43            4.9072     8.3175     0.0005 H       
  44 H44            6.1412     6.5609     1.2011 H       
  45 H45            5.3008     4.2491     1.2123 H       
@<TRIPOS>BOND
   1    1    2 1
   2    1    5 1
   3    1   31 1
   4    2    3 2
   5    3    4 1
   6    3   10 1
   7    4    7 ar
   8    4    5 ar
   9    5    6 ar
  10    6    9 ar
  11    7    8 ar
  12    7   16 1
  13    8    9 ar
  14    8   28 1
  15    9   22 1
  16   10   11 ar
  17   10   15 ar
  18   11   12 ar
  19   11   32 1
  20   12   13 ar
  21   12   33 1
  22   13   14 ar
  23   13   34 1
  24   14   15 ar
  25   14   35 1
  26   15   36 1
  27   16   17 ar
  28   16   21 ar
  29   17   18 ar
  30   17   37 1
  31   18   19 ar
  32   18   38 1
  33   19   20 ar
  34   19   39 1
  35   20   21 ar
  36   20   40 1
  37   21   41 1
  38   22   23 ar
  39   22   27 ar
  40   23   24 ar
  41   23   42 1
  42   24   25 ar
  43   24   30 1
  44   25   26 ar
  45   25   43 1
  46   26   27 ar
  47   26   44 1
  48   27   45 1
  49   28   29 3

#	End of record

