#	Name: ASD08150607
#	Creating user name:	WinNT
#	Creation time:	15. 06. 2019 21:16

#	Modifying user name:	WinNT
#	Modification time:	15. 06. 2019 21:16

#	Program:	/corina/corina34_cracker 3.40 0067  02.08.2006

@<TRIPOS>MOLECULE
ASD08150607
  83   90    0    0    0
SMALL
NO_CHARGES


@<TRIPOS>ATOM
   1 N1            -0.2304     0.7031    -0.1288 N.am    
   2 C2             0.6448     1.0275    -1.1002 C.2     
   3 C3             1.8595     0.3269    -1.2434 C.2     
   4 C4             2.1650    -0.6906    -0.3984 C.2     
   5 C5             1.2468    -1.0342     0.6250 C.ar    
   6 C6             1.5147    -2.0807     1.5281 C.ar    
   7 N7             0.6657    -2.3955     2.4713 N.ar    
   8 C8            -0.4981    -1.7484     2.6346 C.ar    
   9 C9            -0.8504    -0.6815     1.7717 C.ar    
  10 C10            0.0461    -0.3165     0.7400 C.ar    
  11 C11           -2.0661    -0.0142     1.9497 C.ar    
  12 C12           -2.9159    -0.4054     2.9718 C.ar    
  13 C13           -2.5602    -1.4618     3.8221 C.ar    
  14 C14           -1.3812    -2.1204     3.6616 C.ar    
  15 O15            0.3824     1.9392    -1.8662 O.2     
  16 C16           -4.2073     0.2970     3.1676 C.ar    
  17 C17           -1.4286     1.4184    -0.0040 C.ar    
  18 C18           -1.4853     2.5416     0.8114 C.ar    
  19 C19           -2.6654     3.2463     0.9345 C.ar    
  20 C20           -3.7971     2.8322     0.2427 C.ar    
  21 C21           -3.7403     1.7091    -0.5725 C.ar    
  22 C22           -2.5581     1.0077    -0.6998 C.ar    
  23 N23           -4.9928     3.5456     0.3676 N.3     
  24 C24           -5.1668     4.4814    -0.7513 C.3     
  25 C25           -6.5630     5.1086    -0.6759 C.3     
  26 C26           -4.4852     1.4767     2.4588 C.ar    
  27 C27           -5.0580     4.2418     1.6596 C.3     
  28 C28           -6.4497     4.8591     1.8338 C.3     
  29 N29           -6.7392     5.6973     0.6604 N.am    
  30 C30           -7.1545     6.9712     0.8058 C.2     
  31 N31           -5.6164     2.1172     2.6113 N.ar    
  32 C32           -6.5631     1.6808     3.4489 C.ar    
  33 C33           -6.3575     0.4964     4.2006 C.ar    
  34 C34           -5.1520    -0.2099     4.0482 C.ar    
  35 C35           -7.7717     2.3828     3.5996 C.ar    
  36 C36           -8.7205     1.9196     4.4583 C.ar    
  37 C37           -8.5162     0.7554     5.1966 C.ar    
  38 C38           -7.3592     0.0479     5.0782 C.ar    
  39 C39           -7.4455     7.8123    -0.4103 C.3     
  40 O40           -7.2941     7.4406     1.9153 O.2     
  41 N41           -7.7833     9.1790     0.0090 N.3     
  42 C42           -9.0591     9.2060     0.7389 C.3     
  43 C43           -7.8238    10.0893    -1.1447 C.3     
  44 C44           -8.1195    11.5100    -0.6569 C.3     
  45 O45           -9.3471    11.5109     0.0768 O.3     
  46 C46           -9.3425    10.6356     1.2079 C.3     
  47 C47           -4.9676     1.2595    -1.3225 C.3     
  48 F48           -4.7050     0.0419    -1.9595 F       
  49 F49           -6.0289     1.0971    -0.4255 F       
  50 F50           -5.3085     2.2221    -2.2788 F       
  51 H51            2.5493     0.6003    -2.0282 H       
  52 H52            3.0941    -1.2308    -0.5047 H       
  53 H53            2.4382    -2.6336     1.4399 H       
  54 H54           -2.3406     0.8002     1.2956 H       
  55 H55           -3.2315    -1.7566     4.6151 H       
  56 H56           -1.1234    -2.9322     4.3255 H       
  57 H57           -0.6057     2.8633     1.3494 H       
  58 H58           -2.7095     4.1193     1.5687 H       
  59 H59           -2.5127     0.1370    -1.3372 H       
  60 H60           -4.4121     5.2655    -0.6904 H       
  61 H61           -5.0594     3.9451    -1.6941 H       
  62 H62           -6.6564     5.8863    -1.4339 H       
  63 H63           -7.3187     4.3405    -0.8402 H       
  64 H64           -3.7480     1.8650     1.7717 H       
  65 H65           -4.8717     3.5316     2.4652 H       
  66 H66           -4.3048     5.0292     1.6869 H       
  67 H67           -7.1946     4.0670     1.9107 H       
  68 H68           -6.4683     5.4718     2.7350 H       
  69 H69           -4.9635    -1.1155     4.6057 H       
  70 H70           -7.9466     3.2873     3.0359 H       
  71 H71           -9.6469     2.4633     4.5698 H       
  72 H72           -9.2854     0.4102     5.8715 H       
  73 H73           -7.2121    -0.8531     5.6552 H       
  74 H74           -6.5663     7.8366    -1.0541 H       
  75 H75           -8.2846     7.3822    -0.9573 H       
  76 H76           -9.8619     8.8729     0.0811 H       
  77 H77           -8.9980     8.5448     1.6033 H       
  78 H78           -6.8610    10.0728    -1.6554 H       
  79 H79           -8.6069     9.7703    -1.8326 H       
  80 H80           -7.3094    11.8492    -0.0113 H       
  81 H81           -8.2071    12.1782    -1.5136 H       
  82 H82          -10.3145    10.6714     1.6998 H       
  83 H83           -8.5679    10.9494     1.9077 H       
@<TRIPOS>BOND
   1    1    2 am
   2    1   10 1
   3    1   17 1
   4    2    3 1
   5    2   15 2
   6    3    4 2
   7    3   51 1
   8    4    5 1
   9    4   52 1
  10    5    6 ar
  11    5   10 ar
  12    6    7 ar
  13    6   53 1
  14    7    8 ar
  15    8    9 ar
  16    8   14 ar
  17    9   10 ar
  18    9   11 ar
  19   11   12 ar
  20   11   54 1
  21   12   13 ar
  22   12   16 1
  23   13   14 ar
  24   13   55 1
  25   14   56 1
  26   16   26 ar
  27   16   34 ar
  28   17   18 ar
  29   17   22 ar
  30   18   19 ar
  31   18   57 1
  32   19   20 ar
  33   19   58 1
  34   20   21 ar
  35   20   23 1
  36   21   22 ar
  37   21   47 1
  38   22   59 1
  39   23   24 1
  40   23   27 1
  41   24   25 1
  42   24   60 1
  43   24   61 1
  44   25   29 1
  45   25   62 1
  46   25   63 1
  47   26   31 ar
  48   26   64 1
  49   27   28 1
  50   27   65 1
  51   27   66 1
  52   28   29 1
  53   28   67 1
  54   28   68 1
  55   29   30 am
  56   30   39 1
  57   30   40 2
  58   31   32 ar
  59   32   33 ar
  60   32   35 ar
  61   33   34 ar
  62   33   38 ar
  63   34   69 1
  64   35   36 ar
  65   35   70 1
  66   36   37 ar
  67   36   71 1
  68   37   38 ar
  69   37   72 1
  70   38   73 1
  71   39   41 1
  72   39   74 1
  73   39   75 1
  74   41   42 1
  75   41   43 1
  76   42   46 1
  77   42   76 1
  78   42   77 1
  79   43   44 1
  80   43   78 1
  81   43   79 1
  82   44   45 1
  83   44   80 1
  84   44   81 1
  85   45   46 1
  86   46   82 1
  87   46   83 1
  88   47   48 1
  89   47   49 1
  90   47   50 1

#	End of record

