#	Name: ASD00170469
#	Creating user name:	WinNT
#	Creation time:	15. 06. 2019 18:32

#	Modifying user name:	WinNT
#	Modification time:	15. 06. 2019 18:32

#	Program:	/corina/corina34_cracker 3.40 0067  02.08.2006

@<TRIPOS>MOLECULE
ASD00170469
  28   31    0    0    0
SMALL
NO_CHARGES


@<TRIPOS>ATOM
   1 C1            -0.0168     1.3902     0.0097 C.ar    
   2 C2             0.0021    -0.0041     0.0020 C.ar    
   3 C3             1.2212    -0.6838    -0.0133 C.ar    
   4 C4             2.3987     0.0265    -0.0207 C.ar    
   5 C5             2.3838     1.4178    -0.0130 C.ar    
   6 C6             1.1649     2.0984     0.0022 C.ar    
   7 C7             3.8466    -0.3926    -0.0375 C.3     
   8 C8             4.6432     0.8939    -0.0387 C.2     
   9 C9             3.7879     1.9340    -0.0245 C.2     
  10 S10            6.2974     1.5034    -0.0526 S.3     
  11 C11            5.6908     3.1545    -0.0378 C.2     
  12 N12            4.4009     3.1385    -0.0249 N.2     
  13 C13           -1.2716    -0.7639     0.0106 C.2     
  14 N14            6.4767     4.2954    -0.0393 N.pl3   
  15 C15           -1.3176    -2.1092     0.0043 C.2     
  16 S16           -2.9939    -2.6404     0.0190 S.3     
  17 C17           -3.5586    -0.9755     0.0332 C.2     
  18 C18           -2.5199    -0.1441     0.0317 C.2     
  19 H19           -0.9601     1.9162     0.0170 H       
  20 H20            1.2396    -1.7636    -0.0189 H       
  21 H21            1.1484     3.1783     0.0078 H       
  22 H22            4.0794    -0.9790     0.8513 H       
  23 H23            4.0614    -0.9694    -0.9371 H       
  24 H24            7.4435     4.2184    -0.0491 H       
  25 H25            6.0600     5.1713    -0.0305 H       
  26 H26           -0.4573    -2.7619    -0.0079 H       
  27 H27           -4.5952    -0.6726     0.0454 H       
  28 H28           -2.6353     0.9297     0.0393 H       
@<TRIPOS>BOND
   1    1    2 ar
   2    1    6 ar
   3    1   19 1
   4    2    3 ar
   5    2   13 1
   6    3    4 ar
   7    3   20 1
   8    4    5 ar
   9    4    7 1
  10    5    6 ar
  11    5    9 1
  12    6   21 1
  13    7    8 1
  14    7   22 1
  15    7   23 1
  16    8    9 2
  17    8   10 1
  18    9   12 1
  19   10   11 1
  20   11   12 2
  21   11   14 1
  22   13   15 2
  23   13   18 1
  24   14   24 1
  25   14   25 1
  26   15   16 1
  27   15   26 1
  28   16   17 1
  29   17   18 2
  30   17   27 1
  31   18   28 1

#	End of record

