#	Name: ASD03090829
#	Creating user name:	WinNT
#	Creation time:	15. 06. 2019 20:29

#	Modifying user name:	WinNT
#	Modification time:	15. 06. 2019 20:29

#	Program:	/corina/corina34_cracker 3.40 0067  02.08.2006

@<TRIPOS>MOLECULE
ASD03090829
  36   38    0    0    0
SMALL
NO_CHARGES


@<TRIPOS>ATOM
   1 N1            -0.0162     1.3436     0.0094 N.am    
   2 C2             0.0021    -0.0041     0.0020 C.2     
   3 S3             1.4961    -0.8398    -0.0167 S.2     
   4 N4            -1.1477    -0.6889     0.0093 N.2     
   5 C5             1.2424     2.0932     0.0014 C.3     
   6 C6            -1.2947     2.0587     0.0194 C.3     
   7 O7            -0.0348    -2.7918    -0.0121 O.3     
   8 C8            -1.1297    -2.0146     0.0020 C.2     
   9 N9            -2.2185    -2.8329     0.0076 N.pl3   
  10 C10           -1.7467    -4.1388    -0.0038 C.2     
  11 C11           -0.4209    -4.0881    -0.0156 C.2     
  12 C12            0.5027    -5.2788    -0.0312 C.3     
  13 O13           -7.5767    -1.5069     0.0665 O.3     
  14 C14           -8.0785    -2.7926     0.4766 C.3     
  15 O15           -7.0561    -3.7115     0.0484 O.3     
  16 C16           -5.8972    -2.9901     0.0411 C.ar    
  17 C17           -6.2168    -1.6340     0.0522 C.ar    
  18 C18           -4.5708    -3.3863     0.0264 C.ar    
  19 C19           -3.5618    -2.4323     0.0224 C.ar    
  20 C20           -3.8833    -1.0820     0.0335 C.ar    
  21 C21           -5.2072    -0.6855     0.0481 C.ar    
  22 F22           -8.2313    -2.8400     1.8665 F       
  23 F23           -9.2909    -3.0737    -0.1623 F       
  24 H24            1.5448     2.2847    -1.0281 H       
  25 H25            1.1041     3.0410     0.5217 H       
  26 H26            2.0149     1.5118     0.5048 H       
  27 H27           -1.6069     2.2305     1.0495 H       
  28 H28           -1.1798     3.0156    -0.4898 H       
  29 H29           -2.0487     1.4622    -0.4941 H       
  30 H30           -2.3503    -5.0344    -0.0025 H       
  31 H31            1.5374    -4.9359    -0.0389 H       
  32 H32            0.3278    -5.8859     0.8570 H       
  33 H33            0.3111    -5.8756    -0.9229 H       
  34 H34           -4.3209    -4.4369     0.0181 H       
  35 H35           -3.0982    -0.3405     0.0304 H       
  36 H36           -5.4550     0.3656     0.0563 H       
@<TRIPOS>BOND
   1    1    2 am
   2    1    5 1
   3    1    6 1
   4    2    3 2
   5    2    4 1
   6    4    8 2
   7    5   24 1
   8    5   25 1
   9    5   26 1
  10    6   27 1
  11    6   28 1
  12    6   29 1
  13    7    8 1
  14    7   11 1
  15    8    9 1
  16    9   10 1
  17    9   19 1
  18   10   11 2
  19   10   30 1
  20   11   12 1
  21   12   31 1
  22   12   32 1
  23   12   33 1
  24   13   14 1
  25   13   17 1
  26   14   15 1
  27   14   22 1
  28   14   23 1
  29   15   16 1
  30   16   17 ar
  31   16   18 ar
  32   17   21 ar
  33   18   19 ar
  34   18   34 1
  35   19   20 ar
  36   20   21 ar
  37   20   35 1
  38   21   36 1

#	End of record

