#	Name: ASD07930516
#	Creating user name:	WinNT
#	Creation time:	15. 06. 2019 21:12

#	Modifying user name:	WinNT
#	Modification time:	15. 06. 2019 21:12

#	Program:	/corina/corina34_cracker 3.40 0067  02.08.2006

@<TRIPOS>MOLECULE
ASD07930516
  47   49    0    0    0
SMALL
NO_CHARGES


@<TRIPOS>ATOM
   1 C1            -0.0337     1.4578     0.0423 C.3     
   2 N2             0.7956    -0.4139    -2.1302 N.2     
   3 N3            -0.8902    -1.7838    -1.2685 N.pl3   
   4 C4            -0.9149    -2.8273    -0.2382 C.3     
   5 C5            -1.2299    -2.1886     1.1216 C.3     
   6 S6             0.0064    -0.8916     1.4434 S.o2    
   7 N7            -0.0137    -0.0070     0.0315 N.am    
   8 C8            -0.0110    -0.7264    -1.1552 C.2     
   9 C9             0.4500    -3.5157    -0.1754 C.3     
  10 C10           -1.9765    -3.8424    -0.5754 C.ar    
  11 C11           -2.8068    -3.6382    -1.6597 C.ar    
  12 C12           -3.7850    -4.5740    -1.9700 C.ar    
  13 C13           -3.9259    -5.7133    -1.1888 C.ar    
  14 C14           -3.0932    -5.9136    -0.1051 C.ar    
  15 C15           -2.1150    -4.9822     0.1991 C.ar    
  16 O16           -0.4573     0.0115     2.4377 O.2     
  17 O17            1.3142    -1.4444     1.5004 O.2     
  18 F18           -1.3014    -5.1803     1.2593 F       
  19 N19           -4.6279    -4.3688    -3.0682 N.am    
  20 C20           -5.0478    -5.4192    -3.8009 C.2     
  21 O21           -4.6184    -6.5327    -3.5690 O.2     
  22 C22           -6.0299    -5.2174    -4.8859 C.ar    
  23 C23           -6.4703    -6.3081    -5.6428 C.ar    
  24 C24           -7.3884    -6.1175    -6.6566 C.ar    
  25 C25           -7.8752    -4.8375    -6.9244 C.ar    
  26 C26           -7.4339    -3.7486    -6.1675 C.ar    
  27 C27           -8.8272    -4.6393    -7.9756 C.1     
  28 C28           -6.5237    -3.9379    -5.1527 C.ar    
  29 N29           -9.5825    -4.4822    -8.8095 N.1     
  30 F30           -5.9977    -7.5467    -5.3826 F       
  31 H31            0.9889     1.8352     0.0392 H       
  32 H32           -0.5576     1.8206    -0.8421 H       
  33 H33           -0.5474     1.8075     0.9378 H       
  34 H34            1.4075     0.3325    -2.0332 H       
  35 H35           -1.4881    -1.8389    -2.0303 H       
  36 H36           -2.2268    -1.7485     1.0987 H       
  37 H37           -1.1799    -2.9461     1.9037 H       
  38 H38            1.2166    -2.7809     0.0705 H       
  39 H39            0.4310    -4.2911     0.5904 H       
  40 H40            0.6748    -3.9656    -1.1424 H       
  41 H41           -2.6958    -2.7512    -2.2658 H       
  42 H42           -4.6861    -6.4421    -1.4282 H       
  43 H43           -3.2027    -6.7994     0.5030 H       
  44 H44           -4.9098    -3.4706    -3.3020 H       
  45 H45           -7.7291    -6.9586    -7.2421 H       
  46 H46           -7.8109    -2.7583    -6.3762 H       
  47 H47           -6.1875    -3.0963    -4.5653 H       
@<TRIPOS>BOND
   1    1    7 1
   2    1   31 1
   3    1   32 1
   4    1   33 1
   5    2    8 2
   6    2   34 1
   7    3    4 1
   8    3    8 1
   9    3   35 1
  10    4    5 1
  11    4    9 1
  12    4   10 1
  13    5    6 1
  14    5   36 1
  15    5   37 1
  16    6    7 am
  17    6   16 2
  18    6   17 2
  19    7    8 1
  20    9   38 1
  21    9   39 1
  22    9   40 1
  23   10   11 ar
  24   10   15 ar
  25   11   12 ar
  26   11   41 1
  27   12   13 ar
  28   12   19 1
  29   13   14 ar
  30   13   42 1
  31   14   15 ar
  32   14   43 1
  33   15   18 1
  34   19   20 am
  35   19   44 1
  36   20   21 2
  37   20   22 1
  38   22   28 ar
  39   22   23 ar
  40   23   24 ar
  41   23   30 1
  42   24   25 ar
  43   24   45 1
  44   25   26 ar
  45   25   27 1
  46   26   28 ar
  47   26   46 1
  48   27   29 3
  49   28   47 1

#	End of record

