#	Name: ASD02039112
#	Creating user name:	WinNT
#	Creation time:	15. 06. 2019 20:17

#	Modifying user name:	WinNT
#	Modification time:	15. 06. 2019 20:17

#	Program:	/corina/corina34_cracker 3.40 0067  02.08.2006

@<TRIPOS>MOLECULE
ASD02039112
  40   43    0    0    0
SMALL
NO_CHARGES


@<TRIPOS>ATOM
   1 N1             0.0234     1.2846    -0.3607 N.2     
   2 N2             0.0398    -0.0019    -0.3619 N.2     
   3 C3             1.2243     1.7332    -0.0875 C.2     
   4 O4             2.0203     0.6621     0.0883 O.3     
   5 C5             1.2410    -0.4221    -0.0920 C.2     
   6 N6             1.6034     3.0607     0.0028 N.pl3   
   7 C7             0.6404     4.0705    -0.0881 C.ar    
   8 C8             1.6809    -1.8604     0.0024 C.3     
   9 C9             2.1412    -2.3348    -1.3519 C.ar    
  10 C10           -0.6619     3.8293     0.3296 C.ar    
  11 C11            0.9861     5.3185    -0.5910 C.ar    
  12 C12            0.0337     6.3145    -0.6795 C.ar    
  13 C13           -1.2648     6.0708    -0.2678 C.ar    
  14 C14           -1.6116     4.8296     0.2389 C.ar    
  15 Cl15          -2.4594     7.3254    -0.3805 Cl      
  16 C16            3.4676    -2.1942    -1.7181 C.ar    
  17 C17            1.2379    -2.9148    -2.2232 C.ar    
  18 C18            1.6563    -3.3515    -3.4653 C.ar    
  19 C19            2.9858    -3.2068    -3.8378 C.ar    
  20 C20            3.8916    -2.6283    -2.9581 C.ar    
  21 N21            3.4160    -3.6461    -5.0936 N.am    
  22 C22            4.7236    -3.8567    -5.3314 C.2     
  23 C23            5.7471    -3.6438    -4.2488 C.3     
  24 C24            5.3342    -2.4711    -3.3632 C.3     
  25 O25            5.0814    -4.2228    -6.4309 O.2     
  26 Cl26          -3.2415     4.5276     0.7546 Cl      
  27 H27            2.5371     3.2910     0.1292 H       
  28 H28            2.5017    -1.9433     0.7148 H       
  29 H29            0.8453    -2.4746     0.3379 H       
  30 H30           -0.9324     2.8611     0.7244 H       
  31 H31            1.9994     5.5098    -0.9123 H       
  32 H32            0.3026     7.2848    -1.0701 H       
  33 H33            4.1718    -1.7443    -1.0339 H       
  34 H34            0.2039    -3.0270    -1.9323 H       
  35 H35            0.9504    -3.8050    -4.1453 H       
  36 H36            2.7673    -3.8003    -5.7982 H       
  37 H37            5.8225    -4.5447    -3.6397 H       
  38 H38            6.7155    -3.4331    -4.7025 H       
  39 H39            5.4551    -1.5390    -3.9151 H       
  40 H40            5.9623    -2.4498    -2.4726 H       
@<TRIPOS>BOND
   1    1    2 1
   2    1    3 2
   3    2    5 2
   4    3    4 1
   5    3    6 1
   6    4    5 1
   7    5    8 1
   8    6    7 1
   9    6   27 1
  10    7   10 ar
  11    7   11 ar
  12    8    9 1
  13    8   28 1
  14    8   29 1
  15    9   16 ar
  16    9   17 ar
  17   10   14 ar
  18   10   30 1
  19   11   12 ar
  20   11   31 1
  21   12   13 ar
  22   12   32 1
  23   13   14 ar
  24   13   15 1
  25   14   26 1
  26   16   20 ar
  27   16   33 1
  28   17   18 ar
  29   17   34 1
  30   18   19 ar
  31   18   35 1
  32   19   20 ar
  33   19   21 1
  34   20   24 1
  35   21   22 am
  36   21   36 1
  37   22   23 1
  38   22   25 2
  39   23   24 1
  40   23   37 1
  41   23   38 1
  42   24   39 1
  43   24   40 1

#	End of record

