#	Name: ASD01910098
#	Creating user name:	WinNT
#	Creation time:	15. 06. 2019 19:55

#	Modifying user name:	WinNT
#	Modification time:	15. 06. 2019 19:55

#	Program:	/corina/corina34_cracker 3.40 0067  02.08.2006

@<TRIPOS>MOLECULE
ASD01910098
  42   45    0    0    0
SMALL
NO_CHARGES


@<TRIPOS>ATOM
   1 C1             0.1132     0.5036     0.4069 C.ar    
   2 C2             0.3434    -0.8582     0.4533 C.ar    
   3 C3             1.6363    -1.3550     0.3893 C.ar    
   4 C4             2.7038    -0.4793     0.2777 C.ar    
   5 C5             2.4690     0.9100     0.2299 C.ar    
   6 C6             1.1719     1.3920     0.2952 C.ar    
   7 C7             4.1698    -0.6449     0.1871 C.2     
   8 N8             4.7338     0.5728     0.0935 N.am    
   9 C9             3.8003     1.5413     0.1118 C.2     
  10 C10            6.1751     0.8128    -0.0133 C.3     
  11 C11            6.6007     0.6825    -1.4530 C.ar    
  12 C12            6.4505     1.7553    -2.3220 C.ar    
  13 C13            6.8442     1.6319    -3.6483 C.ar    
  14 C14            7.3838     0.4436    -4.0994 C.ar    
  15 C15            7.5323    -0.6241    -3.2312 C.ar    
  16 C16            7.1458    -0.5022    -1.9082 C.ar    
  17 N17            5.9032     2.9578    -1.8625 N.am    
  18 C18            5.3569     3.8268    -2.7359 C.2     
  19 C19            4.8835     5.1495    -2.2666 C.ar    
  20 C20            4.3198     6.0432    -3.1742 C.ar    
  21 C21            3.8809     7.2772    -2.7200 C.ar    
  22 C22            4.0213     7.5741    -1.3735 C.ar    
  23 C23            4.5917     6.6367    -0.5269 C.ar    
  24 N24            4.9950     5.4713    -0.9834 N.ar    
  25 O25            5.2527     3.5251    -3.9085 O.2     
  26 O26            4.0154     2.7346     0.0432 O.2     
  27 O27            4.7656    -1.7032     0.1962 O.2     
  28 Cl28           8.2105    -2.1168    -3.8017 Cl      
  29 H29           -0.8986     0.8783     0.4534 H       
  30 H30           -0.4895    -1.5401     0.5403 H       
  31 H31            1.8103    -2.4203     0.4268 H       
  32 H32            0.9860     2.4553     0.2587 H       
  33 H33            6.4037     1.8170     0.3437 H       
  34 H34            6.7110     0.0814     0.5916 H       
  35 H35            6.7282     2.4646    -4.3263 H       
  36 H36            7.6897     0.3470    -5.1306 H       
  37 H37            7.2628    -1.3368    -1.2329 H       
  38 H38            5.9169     3.1662    -0.9152 H       
  39 H39            4.2263     5.7786    -4.2171 H       
  40 H40            3.4400     7.9911    -3.3999 H       
  41 H41            3.6898     8.5269    -0.9879 H       
  42 H42            4.7029     6.8649     0.5228 H       
@<TRIPOS>BOND
   1    1    2 ar
   2    1    6 ar
   3    1   29 1
   4    2    3 ar
   5    2   30 1
   6    3    4 ar
   7    3   31 1
   8    4    5 ar
   9    4    7 1
  10    5    6 ar
  11    5    9 1
  12    6   32 1
  13    7    8 am
  14    7   27 2
  15    8    9 am
  16    8   10 1
  17    9   26 2
  18   10   11 1
  19   10   33 1
  20   10   34 1
  21   11   12 ar
  22   11   16 ar
  23   12   13 ar
  24   12   17 1
  25   13   14 ar
  26   13   35 1
  27   14   15 ar
  28   14   36 1
  29   15   16 ar
  30   15   28 1
  31   16   37 1
  32   17   18 am
  33   17   38 1
  34   18   19 1
  35   18   25 2
  36   19   20 ar
  37   19   24 ar
  38   20   21 ar
  39   20   39 1
  40   21   22 ar
  41   21   40 1
  42   22   23 ar
  43   22   41 1
  44   23   24 ar
  45   23   42 1

#	End of record

