#	Name: ASD01910587
#	Creating user name:	WinNT
#	Creation time:	15. 06. 2019 19:56

#	Modifying user name:	WinNT
#	Modification time:	15. 06. 2019 19:56

#	Program:	/corina/corina34_cracker 3.40 0067  02.08.2006

@<TRIPOS>MOLECULE
ASD01910587
  43   46    0    0    0
SMALL
NO_CHARGES


@<TRIPOS>ATOM
   1 C1            -0.6031     2.2768     0.1959 C.ar    
   2 C2            -0.7242     0.9013     0.2602 C.ar    
   3 C3             0.4048     0.1012     0.3000 C.ar    
   4 C4             1.6602     0.6711     0.2760 C.ar    
   5 C5             1.7927     2.0595     0.2107 C.ar    
   6 C6             0.6492     2.8627     0.1706 C.ar    
   7 C7             3.1345     2.6766     0.1851 C.2     
   8 N8             3.4085     3.9682     0.1248 N.2     
   9 C9             4.7479     4.0520     0.1248 C.2     
  10 N10            5.2183     2.8412     0.1836 N.2     
  11 O11            4.3128     2.0353     0.2244 O.3     
  12 C12            5.5599     5.3202     0.0665 C.3     
  13 C13            6.4390     5.4218     1.3151 C.3     
  14 C14            7.2397     6.7253     1.2727 C.3     
  15 C15            8.1493     6.7212     0.0400 C.3     
  16 N16            7.3273     6.4788    -1.1534 N.am    
  17 C17            6.4505     5.3002    -1.1798 C.3     
  18 C18            7.3768     7.3216    -2.2040 C.2     
  19 C19            6.6458     6.9973    -3.4462 C.ar    
  20 O20            8.0229     8.3487    -2.1295 O.2     
  21 C21            5.9568     7.9904    -4.1428 C.ar    
  22 N22            5.3048     7.7027    -5.2503 N.ar    
  23 C23            5.2754     6.4772    -5.7437 C.ar    
  24 C24            5.9362     5.4350    -5.1092 C.ar    
  25 C25            6.6383     5.6882    -3.9467 C.ar    
  26 F26            4.5911     6.2352    -6.8831 F       
  27 F27            0.7672     4.2071     0.1069 F       
  28 H28           -1.4881     2.8948     0.1609 H       
  29 H29           -1.7045     0.4485     0.2797 H       
  30 H30            0.3020    -0.9727     0.3505 H       
  31 H31            2.5394     0.0446     0.3079 H       
  32 H32            4.8904     6.1792     0.0221 H       
  33 H33            5.8090     5.4114     2.2046 H       
  34 H34            7.1248     4.5751     1.3462 H       
  35 H35            6.5548     7.5713     1.2166 H       
  36 H36            7.8480     6.8081     2.1734 H       
  37 H37            8.6478     7.6864    -0.0495 H       
  38 H38            8.8936     5.9309     0.1377 H       
  39 H39            7.0562     4.3941    -1.1816 H       
  40 H40            5.8280     5.3278    -2.0742 H       
  41 H41            5.9578     9.0041    -3.7704 H       
  42 H42            5.9051     4.4374    -5.5219 H       
  43 H43            7.1620     4.8959    -3.4325 H       
@<TRIPOS>BOND
   1    1    2 ar
   2    1    6 ar
   3    1   28 1
   4    2    3 ar
   5    2   29 1
   6    3    4 ar
   7    3   30 1
   8    4    5 ar
   9    4   31 1
  10    5    6 ar
  11    5    7 1
  12    6   27 1
  13    7    8 2
  14    7   11 1
  15    8    9 1
  16    9   10 2
  17    9   12 1
  18   10   11 1
  19   12   13 1
  20   12   17 1
  21   12   32 1
  22   13   14 1
  23   13   33 1
  24   13   34 1
  25   14   15 1
  26   14   35 1
  27   14   36 1
  28   15   16 1
  29   15   37 1
  30   15   38 1
  31   16   17 1
  32   16   18 am
  33   17   39 1
  34   17   40 1
  35   18   19 1
  36   18   20 2
  37   19   21 ar
  38   19   25 ar
  39   21   22 ar
  40   21   41 1
  41   22   23 ar
  42   23   24 ar
  43   23   26 1
  44   24   25 ar
  45   24   42 1
  46   25   43 1

#	End of record

