#	Name: ASD01820223
#	Creating user name:	WinNT
#	Creation time:	15. 06. 2019 19:36

#	Modifying user name:	WinNT
#	Modification time:	15. 06. 2019 19:36

#	Program:	/corina/corina34_cracker 3.40 0067  02.08.2006

@<TRIPOS>MOLECULE
ASD01820223
 104  116    0    0    0
SMALL
NO_CHARGES


@<TRIPOS>ATOM
   1 C1             0.2575     0.7968     0.9713 C.ar    
   2 C2             0.4533    -0.5584     1.1456 C.ar    
   3 C3             1.7129    -1.1341     1.1302 C.ar    
   4 C4             2.8033    -0.2853     0.9418 C.ar    
   5 C5             2.6022     1.1068     0.7691 C.ar    
   6 C6             1.3346     1.6523     0.7742 C.ar    
   7 N7             4.1502    -0.5629     0.9032 N.3     
   8 C8             4.8495     0.5243     0.2286 C.3     
   9 C9             3.9447     1.7173     0.6346 C.3     
  10 C10            4.7173     0.2303    -1.2683 C.3     
  11 C11            4.9627     1.5035    -2.0729 C.3     
  12 C12            3.9200     2.5610    -1.7433 C.3     
  13 C13            4.0780     2.9131    -0.2844 C.3     
  14 C14            4.6689    -1.8114     1.2384 C.3     
  15 C15            6.1349    -2.1908     1.0723 C.3     
  16 C16            7.0026    -1.1003     0.4527 C.3     
  17 N17            6.8779    -1.1124    -1.0016 N.3     
  18 C18            5.7126    -0.8213    -1.7375 C.3     
  19 C19            6.6396    -2.4844     2.4920 C.3     
  20 C20            8.0566    -3.0337     2.4631 C.3     
  21 C21            8.9509    -1.9428     1.9209 C.3     
  22 C22            8.5148    -1.4495     0.5593 C.3     
  23 C23            8.7367    -2.3780    -0.5780 C.ar    
  24 C24            7.6987    -2.1147    -1.5017 C.ar    
  25 C25            6.3401     1.9837    -1.6728 C.2     
  26 C26            7.3153     1.4298    -2.3428 C.2     
  27 C27            6.5443     2.9198    -0.5401 C.3     
  28 N28            5.3640     3.5315     0.0531 N.4     
  29 C29            7.0656     0.3842    -3.3558 C.3     
  30 C30            6.6058    -1.1691     3.2379 C.2     
  31 C31            5.4607    -0.8619     3.7916 C.2     
  32 C32            7.7676    -0.2460     3.2698 C.3     
  33 C33            4.2691    -1.7160     3.6442 C.3     
  34 N34            9.0345    -0.7445     2.7621 N.4     
  35 C35            9.6996    -3.3301    -0.8288 C.ar    
  36 C36            9.6223    -4.0276    -2.0248 C.ar    
  37 C37            8.6114    -3.7750    -2.9273 C.ar    
  38 C38            7.6295    -2.8238    -2.6952 C.ar    
  39 H39            3.2933     3.6246    -0.0212 H       
  40 H40            4.9367     1.2878    -3.1391 H       
  41 H41            9.9596    -2.3486     1.8258 H       
  42 H42            5.9800    -3.2057     2.9709 H       
  43 C43            9.5463     0.3278     1.8563 C.3     
  44 C44            9.3361    -0.1505     0.4022 C.3     
  45 H45            6.8861    -0.1491     0.9701 H       
  46 H46            5.8583     0.7730     0.5107 H       
  47 C47            4.4571     2.2988     1.9769 C.3     
  48 C48            5.5107     3.3380     1.5300 C.3     
  49 O49            4.0985    -2.3870     2.4219 O.3     
  50 H50            6.2153    -3.1079     0.4791 H       
  51 H51            3.6963    -0.1217    -1.4686 H       
  52 O52            6.0546    -0.5647    -3.1199 O.3     
  53 C53            9.9771    -0.9578     3.8650 C.3     
  54 C54            5.3299     4.9651    -0.2572 C.3     
  55 C55           10.3268     0.3875     4.5044 C.3     
  56 C56           11.1841     0.1528     5.7497 C.3     
  57 C57            4.1469     5.6149     0.4633 C.3     
  58 C58            4.1963     7.1306     0.2607 C.3     
  59 H59           -0.7455     1.1994     0.9993 H       
  60 H60           -0.4068    -1.1908     1.3042 H       
  61 H61            1.8425    -2.1977     1.2653 H       
  62 H62            1.1887     2.7140     0.6350 H       
  63 H63            4.0746     3.4431    -2.3620 H       
  64 H64            2.9194     2.1612    -1.9183 H       
  65 H65            4.1830    -2.4605     0.4397 H       
  66 H66            5.1522    -1.7741    -1.7659 H       
  67 H67            8.3714    -3.3148     3.4665 H       
  68 H68            8.1030    -3.9046     1.8066 H       
  69 H69            8.3276     1.7411    -2.1591 H       
  70 H70            7.0865     2.3855     0.2361 H       
  71 H71            7.1906     3.7266    -0.8924 H       
  72 H72            6.8286     0.8915    -4.2921 H       
  73 H73            7.9997    -0.1537    -3.5116 H       
  74 H74            5.3834     0.0379     4.3755 H       
  75 H75            7.4953     0.6448     2.7103 H       
  76 H76            7.9209     0.0523     4.3078 H       
  77 H77            4.3053    -2.4669     4.4355 H       
  78 H78            3.3907    -1.1000     3.8215 H       
  79 H79           10.4891    -3.5216    -0.1143 H       
  80 H80           10.3702    -4.7766    -2.2538 H       
  81 H81            8.5869    -4.3330    -3.8522 H       
  82 H82            6.8463    -2.6467    -3.4174 H       
  83 H83            9.0057     1.2581     2.0247 H       
  84 H84           10.6090     0.4887     2.0428 H       
  85 H85           10.2956    -0.3595    -0.0760 H       
  86 H86            8.7779     0.5903    -0.1721 H       
  87 H87            3.6459     2.7836     2.5221 H       
  88 H88            4.9176     1.5192     2.5844 H       
  89 H89            6.5107     2.9823     1.7728 H       
  90 H90            5.3309     4.2857     2.0418 H       
  91 H91            9.5212    -1.6076     4.6120 H       
  92 H92           10.8845    -1.4249     3.4822 H       
  93 H93            6.2578     5.4308     0.0748 H       
  94 H94            5.2195     5.1015    -1.3330 H       
  95 H95           10.8820     0.9958     3.7904 H       
  96 H96            9.4099     0.9049     4.7867 H       
  97 H97           10.6289    -0.4554     6.4637 H       
  98 H98           12.1010    -0.3645     5.4673 H       
  99 H99           11.4332     1.1112     6.2052 H       
 100 H100           3.2143     5.2241     0.0561 H       
 101 H101           4.2013     5.3887     1.5282 H       
 102 H102           5.1289     7.5213     0.6679 H       
 103 H103           4.1419     7.3567    -0.8042 H       
 104 H104           3.3535     7.5935     0.7740 H       
@<TRIPOS>BOND
   1    1    2 ar
   2    1    6 ar
   3    1   59 1
   4    2    3 ar
   5    2   60 1
   6    3    4 ar
   7    3   61 1
   8    4    5 ar
   9    4    7 1
  10    5    6 ar
  11    5    9 1
  12    6   62 1
  13    7    8 1
  14    7   14 1
  15    8    9 1
  16    8   46 1
  17    8   10 1
  18    9   13 1
  19    9   47 1
  20   10   51 1
  21   10   11 1
  22   10   18 1
  23   11   12 1
  24   11   25 1
  25   11   40 1
  26   12   13 1
  27   12   63 1
  28   12   64 1
  29   13   28 1
  30   13   39 1
  31   14   15 1
  32   14   49 1
  33   14   65 1
  34   15   16 1
  35   15   50 1
  36   15   19 1
  37   16   17 1
  38   16   22 1
  39   16   45 1
  40   17   18 1
  41   17   24 1
  42   18   52 1
  43   18   66 1
  44   19   20 1
  45   19   30 1
  46   19   42 1
  47   20   21 1
  48   20   67 1
  49   20   68 1
  50   21   22 1
  51   21   41 1
  52   21   34 1
  53   22   23 1
  54   22   44 1
  55   23   24 ar
  56   23   35 ar
  57   24   38 ar
  58   25   26 2
  59   25   27 1
  60   26   29 1
  61   26   69 1
  62   27   28 1
  63   27   70 1
  64   27   71 1
  65   28   48 1
  66   28   54 1
  67   29   52 1
  68   29   72 1
  69   29   73 1
  70   30   31 2
  71   30   32 1
  72   31   33 1
  73   31   74 1
  74   32   34 1
  75   32   75 1
  76   32   76 1
  77   33   49 1
  78   33   77 1
  79   33   78 1
  80   34   43 1
  81   34   53 1
  82   35   36 ar
  83   35   79 1
  84   36   37 ar
  85   36   80 1
  86   37   38 ar
  87   37   81 1
  88   38   82 1
  89   43   44 1
  90   43   83 1
  91   43   84 1
  92   44   85 1
  93   44   86 1
  94   47   48 1
  95   47   87 1
  96   47   88 1
  97   48   89 1
  98   48   90 1
  99   53   55 1
 100   53   91 1
 101   53   92 1
 102   54   57 1
 103   54   93 1
 104   54   94 1
 105   55   56 1
 106   55   95 1
 107   55   96 1
 108   56   97 1
 109   56   98 1
 110   56   99 1
 111   57   58 1
 112   57  100 1
 113   57  101 1
 114   58  102 1
 115   58  103 1
 116   58  104 1

#	End of record

