#	Name: ASD01885818
#	Creating user name:	WinNT
#	Creation time:	15. 06. 2019 19:50

#	Modifying user name:	WinNT
#	Modification time:	15. 06. 2019 19:50

#	Program:	/corina/corina34_cracker 3.40 0067  02.08.2006

@<TRIPOS>MOLECULE
ASD01885818
  50   53    0    0    0
SMALL
NO_CHARGES


@<TRIPOS>ATOM
   1 C1            -0.0160     1.3294     0.0094 C.ar    
   2 C2            -1.2520     2.0240     0.0189 C.ar    
   3 C3            -2.4596     1.2809     0.0205 C.ar    
   4 C4            -2.3700    -0.1047     0.0125 C.ar    
   5 C5            -1.1108    -0.7138     0.0033 C.ar    
   6 N6             0.0021    -0.0041     0.0020 N.ar    
   7 C7             1.1364     3.4285     0.0097 C.ar    
   8 C8            -0.0805     4.1065     0.0258 C.ar    
   9 C9            -1.2606     3.4246     0.0271 C.ar    
  10 C10           -3.7749     1.9611     0.0308 C.2     
  11 C11           -1.0240    -2.1941    -0.0047 C.2     
  12 C12            2.4227     4.2136     0.0097 C.3     
  13 N13            2.8503     4.4530     1.3945 N.3     
  14 C14            1.1821     2.0685     0.0019 C.ar    
  15 N15            0.1806    -2.7985    -0.0130 N.am    
  16 O16           -2.0389    -2.8621    -0.0037 O.2     
  17 C17            4.2073     5.0025     1.4374 C.3     
  18 C18            4.4651     5.6472     2.8035 C.3     
  19 S19            4.3353     4.3606     4.0828 S.3     
  20 C20            2.7275     3.6044     3.6932 C.3     
  21 C21            2.7090     3.2409     2.2045 C.3     
  22 C22           -4.1757     2.9887     0.9094 C.2     
  23 N23           -5.3995     3.3279     0.6043 N.2     
  24 N24           -5.8265     2.5392    -0.4706 N.pl3   
  25 C25           -4.8207     1.7119    -0.8135 C.2     
  26 C26           -7.1405     2.6056    -1.1149 C.3     
  27 C27            5.8683     6.2565     2.8278 C.3     
  28 F28            5.9715     7.2297     1.8281 F       
  29 F29            6.1000     6.8440     4.0762 F       
  30 F30            6.8165     5.2531     2.6015 F       
  31 H31           -3.2660    -0.7077     0.0137 H       
  32 H32           -0.0889     5.1864     0.0378 H       
  33 H33           -2.1976     3.9616     0.0341 H       
  34 H34            3.1929     3.6491    -0.5159 H       
  35 H35            2.2657     5.1683    -0.4923 H       
  36 H36            2.1338     1.5582    -0.0097 H       
  37 H37            0.9908    -2.2651    -0.0139 H       
  38 H38            0.2373    -3.7668    -0.0182 H       
  39 H39            4.9278     4.2012     1.2733 H       
  40 H40            4.3187     5.7537     0.6555 H       
  41 H41            3.7224     6.4234     2.9881 H       
  42 H42            2.5918     2.7036     4.2918 H       
  43 H43            1.9279     4.3135     3.9069 H       
  44 H44            1.7654     2.7518     1.9629 H       
  45 H45            3.5336     2.5619     1.9872 H       
  46 H46           -3.5757     3.4197     1.6972 H       
  47 H47           -4.8393     0.9798    -1.6073 H       
  48 H48           -7.1080     3.3249    -1.9332 H       
  49 H49           -7.4038     1.6226    -1.5054 H       
  50 H50           -7.8875     2.9188    -0.3854 H       
@<TRIPOS>BOND
   1    1    6 ar
   2    1   14 ar
   3    1    2 ar
   4    2    3 ar
   5    2    9 ar
   6    3   10 1
   7    3    4 ar
   8    4    5 ar
   9    4   31 1
  10    5   11 1
  11    5    6 ar
  12    7   12 1
  13    7    8 ar
  14    7   14 ar
  15    8    9 ar
  16    8   32 1
  17    9   33 1
  18   10   22 1
  19   10   25 2
  20   11   15 am
  21   11   16 2
  22   12   13 1
  23   12   34 1
  24   12   35 1
  25   13   17 1
  26   13   21 1
  27   14   36 1
  28   15   37 1
  29   15   38 1
  30   17   18 1
  31   17   39 1
  32   17   40 1
  33   18   19 1
  34   18   27 1
  35   18   41 1
  36   19   20 1
  37   20   21 1
  38   20   42 1
  39   20   43 1
  40   21   44 1
  41   21   45 1
  42   22   23 2
  43   22   46 1
  44   23   24 1
  45   24   25 1
  46   24   26 1
  47   25   47 1
  48   26   48 1
  49   26   49 1
  50   26   50 1
  51   27   28 1
  52   27   29 1
  53   27   30 1

#	End of record

