#	Name: ASD03910078
#	Creating user name:	WinNT
#	Creation time:	15. 06. 2019 20:47

#	Modifying user name:	WinNT
#	Modification time:	15. 06. 2019 20:47

#	Program:	/corina/corina34_cracker 3.40 0067  02.08.2006

@<TRIPOS>MOLECULE
ASD03910078
  16    6    0    0    0
SMALL
NO_CHARGES


@<TRIPOS>ATOM
   1 K1             0.0000     0.0000     0.0000 Du      
   2 K2             5.0000     5.0000     5.0000 Du      
   3 K3            10.0000    10.0000    10.0000 Du      
   4 Co4           15.0000    15.0000    15.0000 Du      
   5 C5            20.0000    20.0000    20.0000 C.1     
   6 N6            20.0000    21.1360    20.0000 N.1     
   7 C7            25.0000    26.1360    25.0000 C.1     
   8 N8            25.0000    27.2720    25.0000 N.1     
   9 C9            30.0000    32.2720    30.0000 C.1     
  10 N10           30.0000    33.4080    30.0000 N.1     
  11 C11           35.0000    38.4080    35.0000 C.1     
  12 N12           35.0000    39.5440    35.0000 N.1     
  13 C13           40.0000    44.5440    40.0000 C.1     
  14 N14           40.0000    45.6800    40.0000 N.1     
  15 C15           45.0000    50.6800    45.0000 C.1     
  16 N16           45.0000    51.8160    45.0000 N.1     
@<TRIPOS>BOND
   1    5    6 3
   2    7    8 3
   3    9   10 3
   4   11   12 3
   5   13   14 3
   6   15   16 3

#	End of record

