#	Name: ASD08150366
#	Creating user name:	WinNT
#	Creation time:	15. 06. 2019 21:15

#	Modifying user name:	WinNT
#	Modification time:	15. 06. 2019 21:15

#	Program:	/corina/corina34_cracker 3.40 0067  02.08.2006

@<TRIPOS>MOLECULE
ASD08150366
  46   50    0    0    0
SMALL
NO_CHARGES


@<TRIPOS>ATOM
   1 N1             0.8946     2.9251    -1.7189 N.am    
   2 C2             1.3201     2.2897    -2.8281 C.2     
   3 C3             2.5296     1.5655    -2.8283 C.2     
   4 C4             3.2860     1.4988    -1.7032 C.2     
   5 C5             2.8417     2.1665    -0.5346 C.ar    
   6 C6             3.5883     2.1295     0.6586 C.ar    
   7 N7             3.1763     2.7467     1.7350 N.ar    
   8 C8             2.0307     3.4444     1.7681 C.ar    
   9 C9             1.2154     3.5356     0.6131 C.ar    
  10 C10            1.6329     2.8786    -0.5681 C.ar    
  11 C11            0.0232     4.2649     0.6582 C.ar    
  12 C12           -0.3487     4.8923     1.8360 C.ar    
  13 C13            0.4635     4.7979     2.9747 C.ar    
  14 C14            1.6256     4.0920     2.9467 C.ar    
  15 O15            0.6499     2.3414    -3.8453 O.2     
  16 C16           -1.6118     5.6679     1.8924 C.ar    
  17 C17           -0.3079     3.6423    -1.7459 C.ar    
  18 C18           -0.3005     5.0019    -2.0300 C.ar    
  19 C19           -1.4872     5.7072    -2.0560 C.ar    
  20 C20           -2.6845     5.0600    -1.7985 C.ar    
  21 C21           -2.6940     3.7046    -1.5151 C.ar    
  22 C22           -1.5098     2.9941    -1.4942 C.ar    
  23 F23           -3.8444     5.7521    -1.8236 F       
  24 C24           -1.6950     6.8485     2.6354 C.ar    
  25 N25           -2.8377     7.5114     2.6605 N.ar    
  26 C26           -3.8946     7.0702     1.9936 C.ar    
  27 N27           -3.8550     5.9551     1.2784 N.ar    
  28 C28           -2.7471     5.2395     1.1992 C.ar    
  29 N29           -5.0726     7.7939     2.0458 N.pl3   
  30 C30           -3.9981     3.0030    -1.2354 C.3     
  31 F31           -3.7538     1.6497    -0.9783 F       
  32 F32           -4.6117     3.5859    -0.1214 F       
  33 F33           -4.8394     3.1221    -2.3467 F       
  34 H34            2.8552     1.0619    -3.7264 H       
  35 H35            4.2129     0.9446    -1.6984 H       
  36 H36            4.5183     1.5810     0.6852 H       
  37 H37           -0.6029     4.3387    -0.2188 H       
  38 H38            0.1624     5.2924     3.8864 H       
  39 H39            2.2390     4.0294     3.8334 H       
  40 H40            0.6328     5.5070    -2.2300 H       
  41 H41           -1.4819     6.7644    -2.2768 H       
  42 H42           -1.5181     1.9361    -1.2778 H       
  43 H43           -0.8378     7.2136     3.1815 H       
  44 H44           -2.7218     4.3320     0.6142 H       
  45 H45           -5.1168     8.6118     2.5654 H       
  46 H46           -5.8544     7.4833     1.5628 H       
@<TRIPOS>BOND
   1    1    2 am
   2    1   10 1
   3    1   17 1
   4    2    3 1
   5    2   15 2
   6    3    4 2
   7    3   34 1
   8    4    5 1
   9    4   35 1
  10    5    6 ar
  11    5   10 ar
  12    6    7 ar
  13    6   36 1
  14    7    8 ar
  15    8    9 ar
  16    8   14 ar
  17    9   10 ar
  18    9   11 ar
  19   11   12 ar
  20   11   37 1
  21   12   13 ar
  22   12   16 1
  23   13   14 ar
  24   13   38 1
  25   14   39 1
  26   16   24 ar
  27   16   28 ar
  28   17   18 ar
  29   17   22 ar
  30   18   19 ar
  31   18   40 1
  32   19   20 ar
  33   19   41 1
  34   20   21 ar
  35   20   23 1
  36   21   22 ar
  37   21   30 1
  38   22   42 1
  39   24   25 ar
  40   24   43 1
  41   25   26 ar
  42   26   27 ar
  43   26   29 1
  44   27   28 ar
  45   28   44 1
  46   29   45 1
  47   29   46 1
  48   30   31 1
  49   30   32 1
  50   30   33 1

#	End of record

