#	Name: ASD02508375
#	Creating user name:	WinNT
#	Creation time:	15. 06. 2019 20:24

#	Modifying user name:	WinNT
#	Modification time:	15. 06. 2019 20:24

#	Program:	/corina/corina34_cracker 3.40 0067  02.08.2006

@<TRIPOS>MOLECULE
ASD02508375
  33   34    0    0    0
SMALL
NO_CHARGES


@<TRIPOS>ATOM
   1 C1            -0.0180     1.3964    -0.1077 C.2     
   2 C2             0.0030     0.0053     0.1195 C.2     
   3 C3             1.2947    -0.3770     0.1726 C.2     
   4 N4             2.0750     0.7291    -0.0138 N.pl3   
   5 C5             1.2616     1.8136    -0.1852 C.2     
   6 C6             3.4729     0.7481    -0.0267 C.ar    
   7 C7             4.1564     1.6788     0.7484 C.ar    
   8 N8             4.1333    -0.1229    -0.7717 N.ar    
   9 C9             5.4518    -0.1398    -0.8126 C.ar    
  10 C10            6.1952     0.7586    -0.0728 C.ar    
  11 C11            5.5412     1.6860     0.7264 C.ar    
  12 S12            1.8763    -2.0191     0.4373 S.o2    
  13 O13            1.8547    -2.6616    -0.8299 O.2     
  14 O14            3.0492    -1.9062     1.2316 O.2     
  15 N15            0.7504    -2.7929     1.3733 N.am    
  16 C16           -0.3539    -3.5187     0.7408 C.3     
  17 Cl17           3.2859     2.8161     1.7294 Cl      
  18 C18            0.8588    -2.7518     2.8337 C.3     
  19 C19            7.7009     0.7287    -0.1283 C.3     
  20 F20            8.1156    -0.2902    -0.9926 F       
  21 F21            8.1748     1.9590    -0.5963 F       
  22 F22            8.2101     0.4896     1.1527 F       
  23 H23           -0.8983     2.0143    -0.2064 H       
  24 H24           -0.8582    -0.6369     0.2307 H       
  25 H25            1.5875     2.8293    -0.3539 H       
  26 H26            5.9565    -0.8661    -1.4324 H       
  27 H27            6.0992     2.3994     1.3146 H       
  28 H28           -0.0562    -4.5525     0.5656 H       
  29 H29           -1.2249    -3.4974     1.3958 H       
  30 H30           -0.6023    -3.0461    -0.2095 H       
  31 H31            0.3140    -1.8878     3.2142 H       
  32 H32            0.4348    -3.6632     3.2553 H       
  33 H33            1.9081    -2.6738     3.1181 H       
@<TRIPOS>BOND
   1    1    2 1
   2    1    5 2
   3    1   23 1
   4    2    3 2
   5    2   24 1
   6    3    4 1
   7    3   12 1
   8    4    5 1
   9    4    6 1
  10    5   25 1
  11    6    7 ar
  12    6    8 ar
  13    7   17 1
  14    7   11 ar
  15    8    9 ar
  16    9   10 ar
  17    9   26 1
  18   10   11 ar
  19   10   19 1
  20   11   27 1
  21   12   13 2
  22   12   14 2
  23   12   15 am
  24   15   16 1
  25   15   18 1
  26   16   28 1
  27   16   29 1
  28   16   30 1
  29   18   31 1
  30   18   32 1
  31   18   33 1
  32   19   20 1
  33   19   21 1
  34   19   22 1

#	End of record

