#	Name: ASD04910385
#	Creating user name:	WinNT
#	Creation time:	15. 06. 2019 20:55

#	Modifying user name:	WinNT
#	Modification time:	15. 06. 2019 20:55

#	Program:	/corina/corina34_cracker 3.40 0067  02.08.2006

@<TRIPOS>MOLECULE
ASD04910385
  55   58    0    0    0
SMALL
NO_CHARGES


@<TRIPOS>ATOM
   1 C1            -0.1622     1.4802     0.0990 C.2     
   2 C2            -0.1030     0.0045     0.0635 C.ar    
   3 C3             1.1308    -0.6466     0.0053 C.ar    
   4 C4             1.1788    -2.0249    -0.0271 C.ar    
   5 C5             0.0080    -2.7618    -0.0024 C.ar    
   6 C6            -1.2181    -2.1230     0.0548 C.ar    
   7 C7            -1.2804    -0.7455     0.0940 C.ar    
   8 O8             0.8639     2.1299     0.0774 O.2     
   9 O9            -1.3544     2.1054     0.1495 O.3     
  10 C10            0.0684    -4.2672    -0.0385 C.3     
  11 C11           -0.1112    -4.8189     1.3772 C.3     
  12 C12            0.0740    -6.3376     1.3600 C.3     
  13 C13           -0.1056    -6.8893     2.7758 C.3     
  14 O14           -0.9737    -4.7657    -0.8798 O.3     
  15 C15           -0.7107    -5.8995    -1.5820 C.ar    
  16 C16            0.5517    -6.4725    -1.5266 C.ar    
  17 C17            0.8192    -7.6243    -2.2393 C.ar    
  18 C18           -0.1753    -8.2093    -3.0115 C.ar    
  19 C19           -1.4384    -7.6356    -3.0666 C.ar    
  20 C20           -1.7064    -6.4866    -2.3494 C.ar    
  21 N21            0.0961    -9.3794    -3.7362 N.pl3   
  22 N22            1.3184   -10.0615    -3.7721 N.2     
  23 C23            1.1838   -11.1051    -4.5542 C.2     
  24 C24           -0.1279   -11.1194    -5.0401 C.2     
  25 C25           -0.7775   -10.0509    -4.5185 C.2     
  26 C26           -0.3183   -12.3139    -5.9487 C.3     
  27 C27            0.8571   -13.2604    -5.6250 C.3     
  28 C28            1.9420   -12.2901    -5.1118 C.3     
  29 C29           -1.3366     3.5569     0.1821 C.3     
  30 H30            2.0453    -0.0726    -0.0147 H       
  31 H31            2.1324    -2.5298    -0.0721 H       
  32 H32           -2.1281    -2.7042     0.0731 H       
  33 H33           -2.2378    -0.2482     0.1435 H       
  34 H34            1.0348    -4.5827    -0.4315 H       
  35 H35            0.6296    -4.3700     2.0388 H       
  36 H36           -1.1120    -4.5790     1.7364 H       
  37 H37           -0.6668    -6.7865     0.6984 H       
  38 H38            1.0748    -6.5775     1.0008 H       
  39 H39            0.0264    -7.9712     2.7635 H       
  40 H40            0.6352    -6.4404     3.4374 H       
  41 H41           -1.1064    -6.6494     3.1349 H       
  42 H42            1.3254    -6.0172    -0.9261 H       
  43 H43            1.8020    -8.0701    -2.1963 H       
  44 H44           -2.2123    -8.0902    -3.6672 H       
  45 H45           -2.6901    -6.0428    -2.3887 H       
  46 H46           -1.8082    -9.7826    -4.6977 H       
  47 H47           -1.2682   -12.8039    -5.7349 H       
  48 H48           -0.2782   -12.0048    -6.9931 H       
  49 H49            0.5772   -13.9727    -4.8488 H       
  50 H50            1.1949   -13.7782    -6.5227 H       
  51 H51            2.5858   -11.9746    -5.9328 H       
  52 H52            2.5327   -12.7638    -4.3277 H       
  53 H53           -0.7915     3.8940     1.0638 H       
  54 H54           -0.8457     3.9345    -0.7149 H       
  55 H55           -2.3592     3.9320     0.2218 H       
@<TRIPOS>BOND
   1    1    2 1
   2    1    8 2
   3    1    9 1
   4    2    3 ar
   5    2    7 ar
   6    3    4 ar
   7    3   30 1
   8    4    5 ar
   9    4   31 1
  10    5    6 ar
  11    5   10 1
  12    6    7 ar
  13    6   32 1
  14    7   33 1
  15    9   29 1
  16   10   11 1
  17   10   14 1
  18   10   34 1
  19   11   12 1
  20   11   35 1
  21   11   36 1
  22   12   13 1
  23   12   37 1
  24   12   38 1
  25   13   39 1
  26   13   40 1
  27   13   41 1
  28   14   15 1
  29   15   16 ar
  30   15   20 ar
  31   16   17 ar
  32   16   42 1
  33   17   18 ar
  34   17   43 1
  35   18   19 ar
  36   18   21 1
  37   19   20 ar
  38   19   44 1
  39   20   45 1
  40   21   22 1
  41   21   25 1
  42   22   23 2
  43   23   24 1
  44   23   28 1
  45   24   25 2
  46   24   26 1
  47   25   46 1
  48   26   27 1
  49   26   47 1
  50   26   48 1
  51   27   28 1
  52   27   49 1
  53   27   50 1
  54   28   51 1
  55   28   52 1
  56   29   53 1
  57   29   54 1
  58   29   55 1

#	End of record

