#	Name: ASD03731716
#	Creating user name:	WinNT
#	Creation time:	15. 06. 2019 20:46

#	Modifying user name:	WinNT
#	Modification time:	15. 06. 2019 20:46

#	Program:	/corina/corina34_cracker 3.40 0067  02.08.2006

@<TRIPOS>MOLECULE
ASD03731716
  47   49    0    0    0
SMALL
NO_CHARGES


@<TRIPOS>ATOM
   1 C1             0.1055     1.3948     0.9070 C.2     
   2 C2             0.0930    -0.0607     0.6627 C.ar    
   3 C3            -0.1058    -0.5523    -0.6303 C.ar    
   4 C4            -0.1163    -1.9108    -0.8543 C.ar    
   5 C5             0.0700    -2.7931     0.2039 C.ar    
   6 C6             0.2680    -2.3079     1.4917 C.ar    
   7 C7             0.2857    -0.9507     1.7227 C.ar    
   8 O8            -0.0572     2.1678    -0.0173 O.2     
   9 N9             0.2918     1.8670     2.1555 N.am    
  10 S10            0.3059     3.5001     2.4297 S.o2    
  11 O11            0.5473     3.6191     3.8249 O.2     
  12 O12            1.2333     4.0069     1.4798 O.2     
  13 C13           -1.3779     4.0412     2.0266 C.3     
  14 O14            0.0581    -4.1312    -0.0206 O.3     
  15 C15           -1.1278    -4.7868     0.0919 C.ar    
  16 C16           -1.1710    -6.1742    -0.0157 C.ar    
  17 C17           -2.3818    -6.8373     0.0996 C.ar    
  18 C18           -3.5439    -6.1214     0.3210 C.ar    
  19 C19           -3.5012    -4.7439     0.4273 C.ar    
  20 C20           -2.2953    -4.0761     0.3194 C.ar    
  21 O21           -0.0273    -6.8767    -0.2338 O.3     
  22 C22           -0.1475    -8.2972    -0.3332 C.3     
  23 C23            1.2123    -8.9007    -0.5736 C.ar    
  24 C24            2.0019    -9.2743     0.4978 C.ar    
  25 C25            3.2492    -9.8279     0.2773 C.ar    
  26 C26            3.7067   -10.0083    -1.0146 C.ar    
  27 C27            2.9168    -9.6356    -2.0860 C.ar    
  28 C28            1.6677    -9.0860    -1.8656 C.ar    
  29 H29           -0.2513     0.1324    -1.4527 H       
  30 H30           -0.2699    -2.2915    -1.8532 H       
  31 H31            0.4124    -2.9964     2.3111 H       
  32 H32            0.4436    -0.5744     2.7227 H       
  33 H33            0.4177     1.2502     2.8935 H       
  34 H34           -2.0894     3.5263     2.6722 H       
  35 H35           -1.4604     5.1171     2.1803 H       
  36 H36           -1.5958     3.8053     0.9849 H       
  37 H37           -2.4181    -7.9135     0.0163 H       
  38 H38           -4.4872    -6.6396     0.4107 H       
  39 H39           -4.4112    -4.1884     0.5998 H       
  40 H40           -2.2640    -3.0002     0.4076 H       
  41 H41           -0.5617    -8.6926     0.5943 H       
  42 H42           -0.8084    -8.5488    -1.1626 H       
  43 H43            1.6444    -9.1333     1.5071 H       
  44 H44            3.8664   -10.1191     1.1144 H       
  45 H45            4.6815   -10.4402    -1.1868 H       
  46 H46            3.2744    -9.7763    -3.0953 H       
  47 H47            1.0489    -8.7982    -2.7027 H       
@<TRIPOS>BOND
   1    1    2 1
   2    1    8 2
   3    1    9 am
   4    2    3 ar
   5    2    7 ar
   6    3    4 ar
   7    3   29 1
   8    4    5 ar
   9    4   30 1
  10    5    6 ar
  11    5   14 1
  12    6    7 ar
  13    6   31 1
  14    7   32 1
  15    9   10 am
  16    9   33 1
  17   10   11 2
  18   10   12 2
  19   10   13 1
  20   13   34 1
  21   13   35 1
  22   13   36 1
  23   14   15 1
  24   15   16 ar
  25   15   20 ar
  26   16   17 ar
  27   16   21 1
  28   17   18 ar
  29   17   37 1
  30   18   19 ar
  31   18   38 1
  32   19   20 ar
  33   19   39 1
  34   20   40 1
  35   21   22 1
  36   22   23 1
  37   22   41 1
  38   22   42 1
  39   23   24 ar
  40   23   28 ar
  41   24   25 ar
  42   24   43 1
  43   25   26 ar
  44   25   44 1
  45   26   27 ar
  46   26   45 1
  47   27   28 ar
  48   27   46 1
  49   28   47 1

#	End of record

