#	Name: ASD03331341
#	Creating user name:	WinNT
#	Creation time:	15. 06. 2019 20:39

#	Modifying user name:	WinNT
#	Modification time:	15. 06. 2019 20:39

#	Program:	/corina/corina34_cracker 3.40 0067  02.08.2006

@<TRIPOS>MOLECULE
ASD03331341
  73   75    0    0    0
SMALL
NO_CHARGES


@<TRIPOS>ATOM
   1 C1            -0.0108     1.5208    -0.2094 C.3     
   2 C2            -0.0081     0.0183    -0.3373 C.2     
   3 C3             1.1092    -0.7091    -0.5782 C.2     
   4 C4             2.4755    -0.0925    -0.7501 C.3     
   5 C5             2.2852     1.4099    -1.0020 C.3     
   6 N6             1.3755     1.9684     0.0077 N.3     
   7 N7            -0.6303    -2.0931    -0.4133 N.2     
   8 N8             0.7547    -2.0153    -0.6280 N.am    
   9 C9            -1.0903    -0.8706    -0.2385 C.2     
  10 C10            1.5841    -3.0552    -0.8451 C.2     
  11 O11            2.7707    -2.8600    -1.0186 O.2     
  12 N12            1.0972    -4.3117    -0.8697 N.am    
  13 C13           -2.5035    -0.4990     0.0175 C.ar    
  14 C14           -3.2486    -1.1949     0.9706 C.ar    
  15 C15           -4.5646    -0.8448     1.2061 C.ar    
  16 C16           -5.1442     0.1944     0.4978 C.ar    
  17 C17           -4.4073     0.8887    -0.4509 C.ar    
  18 C18           -3.0891     0.5497    -0.6886 C.ar    
  19 F19           -4.9779     1.9014    -1.1394 F       
  20 F20           -6.4311     0.5330     0.7309 F       
  21 F21           -2.6843    -2.2095     1.6615 F       
  22 C22            1.4569     3.4349     0.0358 C.3     
  23 C23            1.2188    -6.5942    -1.6850 C.2     
  24 C24            1.9987    -5.4421    -1.1056 C.3     
  25 C25            2.6354    -5.8715     0.2177 C.3     
  26 C26            1.5427    -6.3381     1.1817 C.3     
  27 O27            0.0096    -6.6150    -1.5932 O.2     
  28 C28            3.6152    -7.0188    -0.0364 C.3     
  29 C29            3.3849    -4.6871     0.8310 C.3     
  30 N30            1.8650    -7.6013    -2.3052 N.am    
  31 C31            0.9407    -9.7549    -1.6756 C.2     
  32 C32            1.1156    -8.7610    -2.7947 C.3     
  33 C33            1.8840    -9.4167    -3.9438 C.3     
  34 C34            1.9533    -8.4504    -5.1280 C.3     
  35 C35            2.8264    -9.0551    -6.2293 C.3     
  36 O36            1.3971    -9.5180    -0.5772 O.2     
  37 C37            0.5437    -8.2068    -5.6707 C.3     
  38 N38            0.2771   -10.9072    -1.8953 N.am    
  39 H39           -0.4021     1.9667    -1.1238 H       
  40 H40           -0.6293     1.8163     0.6381 H       
  41 H41            3.0648    -0.2432     0.1544 H       
  42 H42            2.9815    -0.5482    -1.6012 H       
  43 H43            3.2500     1.9133    -0.9394 H       
  44 H44            1.8616     1.5605    -1.9950 H       
  45 H45            0.1498    -4.4676    -0.7312 H       
  46 H46           -5.1421    -1.3828     1.9434 H       
  47 H47           -2.5150     1.0936    -1.4241 H       
  48 H48            0.8352     3.8178     0.8452 H       
  49 H49            2.4912     3.7384     0.1974 H       
  50 H50            1.1046     3.8367    -0.9142 H       
  51 H51            2.7799    -5.1440    -1.8049 H       
  52 H52            1.0088    -7.1819     0.7447 H       
  53 H53            1.9963    -6.6440     2.1244 H       
  54 H54            0.8447    -5.5207     1.3627 H       
  55 H55            4.4229    -6.6709    -0.6805 H       
  56 H56            4.0288    -7.3603     0.9125 H       
  57 H57            3.0922    -7.8425    -0.5223 H       
  58 H58            2.6868    -3.8697     1.0120 H       
  59 H59            3.8385    -4.9930     1.7738 H       
  60 H60            4.1633    -4.3547     0.1442 H       
  61 H61            2.8263    -7.5582    -2.4274 H       
  62 H62            0.1370    -8.4377    -3.1498 H       
  63 H63            2.8939    -9.6598    -3.6135 H       
  64 H64            1.3721   -10.3293    -4.2491 H       
  65 H65            2.3850    -7.5046    -4.8003 H       
  66 H66            2.3947   -10.0009    -6.5569 H       
  67 H67            2.8758    -8.3667    -7.0729 H       
  68 H68            3.8306    -9.2287    -5.8427 H       
  69 H69           -0.0783    -7.7759    -4.8861 H       
  70 H70            0.5931    -7.5183    -6.5143 H       
  71 H71            0.1121    -9.1525    -5.9983 H       
  72 H72            0.1645   -11.5470    -1.1749 H       
  73 H73           -0.0880   -11.0968    -2.7737 H       
@<TRIPOS>BOND
   1    1    2 1
   2    1    6 1
   3    1   39 1
   4    1   40 1
   5    2    3 2
   6    2    9 1
   7    3    4 1
   8    3    8 1
   9    4    5 1
  10    4   41 1
  11    4   42 1
  12    5    6 1
  13    5   43 1
  14    5   44 1
  15    6   22 1
  16    7    8 1
  17    7    9 2
  18    8   10 am
  19    9   13 1
  20   10   11 2
  21   10   12 am
  22   12   24 1
  23   12   45 1
  24   13   14 ar
  25   13   18 ar
  26   14   15 ar
  27   14   21 1
  28   15   16 ar
  29   15   46 1
  30   16   17 ar
  31   16   20 1
  32   17   18 ar
  33   17   19 1
  34   18   47 1
  35   22   48 1
  36   22   49 1
  37   22   50 1
  38   23   27 2
  39   23   30 am
  40   23   24 1
  41   24   25 1
  42   24   51 1
  43   25   26 1
  44   25   28 1
  45   25   29 1
  46   26   52 1
  47   26   53 1
  48   26   54 1
  49   28   55 1
  50   28   56 1
  51   28   57 1
  52   29   58 1
  53   29   59 1
  54   29   60 1
  55   30   32 1
  56   30   61 1
  57   31   36 2
  58   31   38 am
  59   31   32 1
  60   32   33 1
  61   32   62 1
  62   33   34 1
  63   33   63 1
  64   33   64 1
  65   34   35 1
  66   34   37 1
  67   34   65 1
  68   35   66 1
  69   35   67 1
  70   35   68 1
  71   37   69 1
  72   37   70 1
  73   37   71 1
  74   38   72 1
  75   38   73 1

#	End of record

