#	Name: ASD01912686
#	Creating user name:	WinNT
#	Creation time:	15. 06. 2019 20:00

#	Modifying user name:	WinNT
#	Modification time:	15. 06. 2019 20:00

#	Program:	/corina/corina34_cracker 3.40 0067  02.08.2006

@<TRIPOS>MOLECULE
ASD01912686
  42   45    0    0    0
SMALL
NO_CHARGES


@<TRIPOS>ATOM
   1 C1            -0.0264     1.3417     0.2541 C.2     
   2 N2             0.0028    -0.0022    -0.0159 N.pl3   
   3 C3            -1.1913    -0.6642    -0.2594 C.2     
   4 C4            -2.3525    -0.0228    -0.2354 C.2     
   5 N5            -2.4358     1.3307     0.0317 N.am    
   6 C6            -1.3128     2.0396     0.2840 C.2     
   7 C7             1.2831     1.7370     0.4535 C.2     
   8 C8             2.0428     0.5801     0.2880 C.2     
   9 N9             1.2234    -0.4070     0.0131 N.2     
  10 O10           -1.3691     3.2328     0.5210 O.2     
  11 C11           -3.6826     1.9657     0.0466 C.ar    
  12 C12            3.5421     0.4807     0.4039 C.3     
  13 O13            4.0822     1.7669     0.7135 O.3     
  14 C14            5.4314     1.8522     0.8532 C.ar    
  15 C15            6.0232     3.0704     1.1538 C.ar    
  16 C16            7.3948     3.1545     1.2952 C.ar    
  17 C17            8.1777     2.0258     1.1375 C.ar    
  18 C18            7.5903     0.8106     0.8374 C.ar    
  19 C19            6.2186     0.7200     0.7011 C.ar    
  20 C20           -3.9986     2.9011    -0.9303 C.ar    
  21 C21           -5.2299     3.5271    -0.9139 C.ar    
  22 C22           -5.8398     2.2873     1.0465 C.ar    
  23 C23           -4.6084     1.6576     1.0348 C.ar    
  24 C24           -6.1484     3.2242     0.0737 C.ar    
  25 F25           -6.7417     1.9889     2.0070 F       
  26 C26           -7.4905     3.9096     0.0885 C.3     
  27 H27           -1.1757    -1.7228    -0.4731 H       
  28 H28           -3.2599    -0.5750    -0.4307 H       
  29 H29            1.6408     2.7289     0.6870 H       
  30 H30            3.7994    -0.2219     1.1965 H       
  31 H31            3.9571     0.1303    -0.5412 H       
  32 H32            5.4121     3.9524     1.2768 H       
  33 H33            7.8560     4.1027     1.5289 H       
  34 H34            9.2498     2.0935     1.2484 H       
  35 H35            8.2040    -0.0695     0.7140 H       
  36 H36            5.7602    -0.2294     0.4667 H       
  37 H37           -3.2818     3.1393    -1.7021 H       
  38 H38           -5.4752     4.2544    -1.6737 H       
  39 H39           -4.3674     0.9271     1.7929 H       
  40 H40           -8.2019     3.3279    -0.4977 H       
  41 H41           -7.8460     3.9901     1.1157 H       
  42 H42           -7.3941     4.9064    -0.3419 H       
@<TRIPOS>BOND
   1    1    2 1
   2    1    7 2
   3    1    6 1
   4    2    3 1
   5    2    9 1
   6    3    4 2
   7    3   27 1
   8    4    5 1
   9    4   28 1
  10    5    6 am
  11    5   11 1
  12    6   10 2
  13    7    8 1
  14    7   29 1
  15    8    9 2
  16    8   12 1
  17   11   20 ar
  18   11   23 ar
  19   12   13 1
  20   12   30 1
  21   12   31 1
  22   13   14 1
  23   14   15 ar
  24   14   19 ar
  25   15   16 ar
  26   15   32 1
  27   16   17 ar
  28   16   33 1
  29   17   18 ar
  30   17   34 1
  31   18   19 ar
  32   18   35 1
  33   19   36 1
  34   20   21 ar
  35   20   37 1
  36   21   24 ar
  37   21   38 1
  38   22   23 ar
  39   22   25 1
  40   22   24 ar
  41   23   39 1
  42   24   26 1
  43   26   40 1
  44   26   41 1
  45   26   42 1

#	End of record

