#	Name: ASD08178308
#	Creating user name:	WinNT
#	Creation time:	15. 06. 2019 21:18

#	Modifying user name:	WinNT
#	Modification time:	15. 06. 2019 21:18

#	Program:	/corina/corina34_cracker 3.40 0067  02.08.2006

@<TRIPOS>MOLECULE
ASD08178308
  86   89    0    0    0
SMALL
NO_CHARGES


@<TRIPOS>ATOM
   1 N1            -0.0459     1.4551    -0.2125 N.am    
   2 C2            -0.1184     0.0642    -0.2804 C.ar    
   3 C3             1.0257    -0.6839    -0.5507 C.ar    
   4 N4            -1.2742    -0.5521    -0.0827 N.ar    
   5 N5            -1.3831    -1.8299    -0.1360 N.ar    
   6 C6            -0.3542    -2.6142    -0.3906 C.ar    
   7 C7             0.9007    -2.0637    -0.6070 C.ar    
   8 C8            -0.5402    -4.1088    -0.4406 C.3     
   9 C9            -1.1732    -4.5880     0.8673 C.3     
  10 C10           -1.3621    -6.1054     0.8166 C.3     
  11 C11           -1.9951    -6.5846     2.1245 C.3     
  12 C12           -2.1812    -8.0792     2.0745 C.2     
  13 N13           -1.3236    -8.9692     2.4620 N.2     
  14 N14           -1.6682   -10.1774     2.3379 N.2     
  15 C15           -2.8416   -10.4214     1.8373 C.2     
  16 S16           -3.6090    -8.9308     1.4849 S.3     
  17 N17           -3.3869   -11.6834     1.6273 N.am    
  18 C18           -2.6820   -12.7849     1.9534 C.2     
  19 C19           -3.2729   -14.1524     1.7259 C.3     
  20 O20           -1.5720   -12.6754     2.4298 O.2     
  21 C21           -2.2900   -15.2046     2.1708 C.ar    
  22 C22           -1.1703     2.1818    -0.0578 C.2     
  23 C23           -1.0826     3.6737     0.1364 C.3     
  24 O24           -2.2528     1.6352    -0.0750 O.2     
  25 C25           -2.3132   -15.6652     3.4737 C.ar    
  26 C26           -1.4115   -16.6305     3.8819 C.ar    
  27 C27           -0.4872   -17.1353     2.9868 C.ar    
  28 C28           -0.4646   -16.6753     1.6832 C.ar    
  29 C29           -1.3688   -15.7134     1.2741 C.ar    
  30 C30           -1.0008     4.3617    -1.2277 C.3     
  31 C31           -2.3066     4.1575     0.8704 C.ar    
  32 C32            0.5436   -17.2253     0.7074 C.3     
  33 N33           -0.0223   -18.3927     0.0267 N.am    
  34 C34            0.7050   -19.0527    -0.8963 C.2     
  35 O35            0.1850   -20.1255    -1.5218 O.3     
  36 O36            1.8300   -18.6795    -1.1638 O.2     
  37 C37            1.0251   -20.7872    -2.5041 C.3     
  38 C38            2.3043   -21.2852    -1.8285 C.3     
  39 C39            0.2696   -21.9747    -3.1042 C.3     
  40 C40            1.3864   -19.7988    -3.6147 C.3     
  41 C41           -3.5657     3.8869     0.3682 C.ar    
  42 C42           -4.6885     4.3308     1.0414 C.ar    
  43 C43           -4.5521     5.0449     2.2172 C.ar    
  44 C44           -3.2930     5.3147     2.7199 C.ar    
  45 C45           -2.1704     4.8671     2.0489 C.ar    
  46 O46           -2.1040     3.9485    -2.0365 O.3     
  47 O47            0.0848     3.9870     0.8987 O.3     
  48 H48            0.8143     1.8994    -0.2726 H       
  49 H49            1.9798    -0.2041    -0.7116 H       
  50 H50            1.7543    -2.6912    -0.8171 H       
  51 H51           -1.1921    -4.3661    -1.2754 H       
  52 H52            0.4281    -4.5912    -0.5736 H       
  53 H53           -0.5213    -4.3307     1.7021 H       
  54 H54           -2.1416    -4.1056     1.0004 H       
  55 H55           -2.0140    -6.3627    -0.0182 H       
  56 H56           -0.3938    -6.5878     0.6835 H       
  57 H57           -1.3433    -6.3273     2.9593 H       
  58 H58           -2.9635    -6.1022     2.2576 H       
  59 H59           -4.2746   -11.7709     1.2463 H       
  60 H60           -4.1943   -14.2501     2.2999 H       
  61 H61           -3.4896   -14.2828     0.6657 H       
  62 H62           -3.0355   -15.2707     4.1731 H       
  63 H63           -1.4291   -16.9898     4.9002 H       
  64 H64            0.2177   -17.8888     3.3058 H       
  65 H65           -1.3512   -15.3540     0.2557 H       
  66 H66           -1.0344     5.4427    -1.0921 H       
  67 H67           -0.0672     4.0860    -1.7183 H       
  68 H68            0.7917   -16.4605    -0.0285 H       
  69 H69            1.4456   -17.5195     1.2440 H       
  70 H70           -0.9203   -18.6906     0.2403 H       
  71 H71            2.0468   -21.9894    -1.0373 H       
  72 H72            2.9349   -21.7819    -2.5659 H       
  73 H73            2.8425   -20.4392    -1.4010 H       
  74 H74           -0.6417   -21.6198    -3.5855 H       
  75 H75            0.9002   -22.4713    -3.8415 H       
  76 H76            0.0121   -22.6788    -2.3130 H       
  77 H77            1.9246   -18.9528    -3.1872 H       
  78 H78            2.0170   -20.2955    -4.3521 H       
  79 H79            0.4751   -19.4439    -4.0960 H       
  80 H80           -3.6723     3.3290    -0.5504 H       
  81 H81           -5.6722     4.1199     0.6487 H       
  82 H82           -5.4293     5.3922     2.7428 H       
  83 H83           -3.1865     5.8729     3.6383 H       
  84 H84           -1.1867     5.0779     2.4417 H       
  85 H85           -2.1164     4.3464    -2.9178 H       
  86 H86            0.1008     3.5834     1.7773 H       
@<TRIPOS>BOND
   1    1    2 1
   2    1   22 am
   3    1   48 1
   4    2    3 ar
   5    2    4 ar
   6    3    7 ar
   7    3   49 1
   8    4    5 ar
   9    5    6 ar
  10    6    7 ar
  11    6    8 1
  12    7   50 1
  13    8    9 1
  14    8   51 1
  15    8   52 1
  16    9   10 1
  17    9   53 1
  18    9   54 1
  19   10   11 1
  20   10   55 1
  21   10   56 1
  22   11   12 1
  23   11   57 1
  24   11   58 1
  25   12   13 2
  26   12   16 1
  27   13   14 1
  28   14   15 2
  29   15   16 1
  30   15   17 1
  31   17   18 am
  32   17   59 1
  33   18   19 1
  34   18   20 2
  35   19   21 1
  36   19   60 1
  37   19   61 1
  38   21   25 ar
  39   21   29 ar
  40   22   23 1
  41   22   24 2
  42   23   30 1
  43   23   31 1
  44   23   47 1
  45   25   26 ar
  46   25   62 1
  47   26   27 ar
  48   26   63 1
  49   27   28 ar
  50   27   64 1
  51   28   29 ar
  52   28   32 1
  53   29   65 1
  54   30   46 1
  55   30   66 1
  56   30   67 1
  57   31   41 ar
  58   31   45 ar
  59   32   33 1
  60   32   68 1
  61   32   69 1
  62   33   34 am
  63   33   70 1
  64   34   35 1
  65   34   36 2
  66   35   37 1
  67   37   38 1
  68   37   39 1
  69   37   40 1
  70   38   71 1
  71   38   72 1
  72   38   73 1
  73   39   74 1
  74   39   75 1
  75   39   76 1
  76   40   77 1
  77   40   78 1
  78   40   79 1
  79   41   42 ar
  80   41   80 1
  81   42   43 ar
  82   42   81 1
  83   43   44 ar
  84   43   82 1
  85   44   45 ar
  86   44   83 1
  87   45   84 1
  88   46   85 1
  89   47   86 1

#	End of record

