#	Name: ASD08150752
#	Creating user name:	WinNT
#	Creation time:	15. 06. 2019 21:16

#	Modifying user name:	WinNT
#	Modification time:	15. 06. 2019 21:16

#	Program:	/corina/corina34_cracker 3.40 0067  02.08.2006

@<TRIPOS>MOLECULE
ASD08150752
  31   33    0    0    0
SMALL
NO_CHARGES


@<TRIPOS>ATOM
   1 C1            -0.0919     1.1446     0.0568 C.2     
   2 N2             0.1174    -0.1570     0.1260 N.2     
   3 C3             1.3390    -0.6696     0.0688 C.2     
   4 C4             2.4242     0.1881    -0.0674 C.2     
   5 C5             2.1942     1.5736    -0.1405 C.2     
   6 N6             0.9166     2.0505    -0.0768 N.am    
   7 S7            -1.5895     2.0921     0.0986 S.3     
   8 C8             0.5233     3.3650    -0.1336 C.2     
   9 C9            -0.7642     3.6525    -0.0587 C.2     
  10 O10            3.1319     2.3455    -0.2598 O.2     
  11 S11            6.1410    -0.9764    -0.8621 S.3     
  12 C12            5.5672    -1.4492     0.6769 C.2     
  13 N13            4.3602    -1.0344     0.8551 N.2     
  14 C14            3.8046    -0.3500    -0.1341 C.2     
  15 C15            4.6050    -0.1854    -1.2067 C.2     
  16 C16            1.5448     4.4632    -0.2806 C.3     
  17 C17            1.5475    -2.1599     0.1508 C.3     
  18 C18            1.1627    -2.6526     1.5473 C.3     
  19 N19            0.7103    -2.8260    -0.8500 N.2     
  20 N20            0.7905    -3.9370    -1.0003 N.1     
  21 N21            0.8706    -5.0480    -1.1505 N.pl3   
  22 H22           -1.2184     4.6318    -0.0912 H       
  23 H23            6.1363    -2.0164     1.3986 H       
  24 H24            4.3497     0.3386    -2.1159 H       
  25 H25            1.7156     4.6612    -1.3388 H       
  26 H26            1.1777     5.3680     0.2037 H       
  27 H27            2.4798     4.1546     0.1869 H       
  28 H28            2.5955    -2.3911    -0.0400 H       
  29 H29            0.1147    -2.4214     1.7381 H       
  30 H30            1.3135    -3.7305     1.6066 H       
  31 H31            1.7856    -2.1571     2.2919 H       
@<TRIPOS>BOND
   1    1    2 2
   2    1    6 1
   3    1    7 1
   4    2    3 1
   5    3    4 2
   6    3   17 1
   7    4    5 1
   8    4   14 1
   9    5    6 am
  10    5   10 2
  11    6    8 1
  12    7    9 1
  13    8    9 2
  14    8   16 1
  15    9   22 1
  16   11   12 1
  17   11   15 1
  18   12   13 2
  19   12   23 1
  20   13   14 1
  21   14   15 2
  22   15   24 1
  23   16   25 1
  24   16   26 1
  25   16   27 1
  26   17   18 1
  27   17   19 1
  28   17   28 1
  29   18   29 1
  30   18   30 1
  31   18   31 1
  32   19   20 2
  33   20   21 2

#	End of record

