#	Name: ASD01028786
#	Creating user name:	WinNT
#	Creation time:	15. 06. 2019 18:58

#	Modifying user name:	WinNT
#	Modification time:	15. 06. 2019 18:58

#	Program:	/corina/corina34_cracker 3.40 0067  02.08.2006

@<TRIPOS>MOLECULE
ASD01028786
  36   38    0    0    0
SMALL
NO_CHARGES


@<TRIPOS>ATOM
   1 N1            -0.0169     1.3952     0.0097 N.pl3   
   2 N2             0.0021    -0.0041     0.0020 N.2     
   3 C3             1.2420    -0.4088    -0.0120 C.2     
   4 C4             2.0738     0.7314    -0.0138 C.2     
   5 C5             1.2501     1.8374    -0.0000 C.2     
   6 C6            -1.2171     2.2353     0.0202 C.3     
   7 C7            -1.7209     2.7304     1.3774 C.3     
   8 C8            -1.0471     3.7052     0.4095 C.3     
   9 O9             4.5237    -0.3938    -0.0428 O.3     
  10 B10            3.6437     0.7392    -0.0283 Du      
  11 O11            4.5125     1.8809    -0.0305 O.3     
  12 C12            5.5814     1.5248    -0.9324 C.3     
  13 C13            5.5890    -0.0174    -0.9407 C.3     
  14 C14            6.9300    -0.5467    -0.4284 C.3     
  15 C15            5.3097    -0.5443    -2.3497 C.3     
  16 C16            5.2968     2.0641    -2.3356 C.3     
  17 C17            6.9172     2.0617    -0.4143 C.3     
  18 H18            1.5741    -1.4365    -0.0201 H       
  19 H19            1.5666     2.8700     0.0022 H       
  20 H20           -1.9636     1.9981    -0.7378 H       
  21 H21           -2.7989     2.8194     1.5121 H       
  22 H22           -1.1595     2.4311     2.2624 H       
  23 H23           -0.0424     4.0471     0.6578 H       
  24 H24           -1.6818     4.4354    -0.0926 H       
  25 H25            6.8986    -1.6354    -0.3857 H       
  26 H26            7.7263    -0.2324    -1.1031 H       
  27 H27            7.1205    -0.1493     0.5685 H       
  28 H28            4.3597    -0.1452    -2.7051 H       
  29 H29            6.1095    -0.2300    -3.0203 H       
  30 H30            5.2610    -1.6330    -2.3275 H       
  31 H31            5.2374     3.1520    -2.3016 H       
  32 H32            6.0996     1.7650    -3.0095 H       
  33 H33            4.3508     1.6596    -2.6954 H       
  34 H34            7.1116     1.6555     0.5783 H       
  35 H35            7.7165     1.7626    -1.0923 H       
  36 H36            6.8750     3.1496    -0.3598 H       
@<TRIPOS>BOND
   1    1    2 1
   2    1    5 1
   3    1    6 1
   4    2    3 2
   5    3    4 1
   6    3   18 1
   7    4    5 2
   8    4   10 1
   9    5   19 1
  10    6    7 1
  11    6    8 1
  12    6   20 1
  13    7    8 1
  14    7   21 1
  15    7   22 1
  16    8   23 1
  17    8   24 1
  18    9   10 1
  19    9   13 1
  20   10   11 1
  21   11   12 1
  22   12   13 1
  23   12   16 1
  24   12   17 1
  25   13   14 1
  26   13   15 1
  27   14   25 1
  28   14   26 1
  29   14   27 1
  30   15   28 1
  31   15   29 1
  32   15   30 1
  33   16   31 1
  34   16   32 1
  35   16   33 1
  36   17   34 1
  37   17   35 1
  38   17   36 1

#	End of record

