#	Name: ASD08170165
#	Creating user name:	WinNT
#	Creation time:	15. 06. 2019 21:17

#	Modifying user name:	WinNT
#	Modification time:	15. 06. 2019 21:17

#	Program:	/corina/corina34_cracker 3.40 0067  02.08.2006

@<TRIPOS>MOLECULE
ASD08170165
  57   58    0    0    0
SMALL
NO_CHARGES


@<TRIPOS>ATOM
   1 Cl1            0.0000     0.0000     0.0000 Cl      
   2 H2             0.0000     1.3700     0.0000 H       
   3 Cl3            5.0000     6.3700     5.0000 Cl      
   4 H4             5.0000     7.7400     5.0000 H       
   5 C5            11.9528    23.7955    14.2120 C.3     
   6 C6            15.1253    26.5710    14.1966 C.3     
   7 C7            15.2771    28.0934    14.2033 C.3     
   8 C8            16.7407    28.4524    14.1913 C.2     
   9 C9            11.9732    22.2887    14.2037 C.2     
  10 S10           17.7647    28.6925    15.6074 S.3     
  11 C11           19.0875    29.0242    14.5705 C.2     
  12 N12           18.6839    28.9346    13.3392 N.2     
  13 N13           17.4740    28.6344    13.1393 N.2     
  14 S14           11.9737    21.2560    12.7736 S.3     
  15 N15           11.9992    21.5193    15.2453 N.2     
  16 N16           12.0134    20.2756    15.0287 N.2     
  17 C17           12.0028    19.8787    13.7920 C.2     
  18 N18           12.0150    18.5551    13.3652 N.am    
  19 C19           12.0405    17.5558    14.2692 C.2     
  20 O20           12.0529    17.8108    15.4548 O.2     
  21 N21           20.3792    29.3378    14.9794 N.am    
  22 C22           21.3366    29.5791    14.0620 C.2     
  23 C23           22.7363    29.9190    14.5050 C.3     
  24 O24           21.0716    29.5226    12.8798 O.2     
  25 C25           12.0538    16.1216    13.8067 C.3     
  26 C26           12.0821    15.2078    15.0047 C.2     
  27 C27           13.3882    24.3251    14.2011 C.3     
  28 C28           11.0069    14.7270    15.6301 C.2     
  29 C29           23.6063    30.1409    13.2948 C.2     
  30 C30           23.7906    31.3125    12.6852 C.2     
  31 C31           11.2791    13.9041    16.7100 C.2     
  32 C32           12.5769    13.7172    16.9608 C.2     
  33 S33           13.5382    14.6065    15.7867 S.3     
  34 Cl34          13.2176    12.7400    18.2446 Cl      
  35 C35           24.6360    31.2737    11.5892 C.2     
  36 C36           25.1381    30.0687    11.3095 C.2     
  37 S37           24.5396    28.8956    12.4753 S.3     
  38 Cl38          26.2216    29.7153    10.0000 Cl      
  39 S39           13.3636    26.1389    14.2111 S.3     
  40 H40           11.4256    24.1566    13.3289 H       
  41 H41           11.4426    24.1470    15.1088 H       
  42 H42           15.5920    26.1633    13.2999 H       
  43 H43           15.6090    26.1537    15.0798 H       
  44 H44           14.7934    28.5107    13.3202 H       
  45 H45           14.8104    28.5011    15.1000 H       
  46 H46           12.0052    18.3512    12.4169 H       
  47 H47           20.5911    29.3830    15.9249 H       
  48 H48           22.7160    30.8260    15.1092 H       
  49 H49           23.1397    29.0973    15.0968 H       
  50 H50           11.1585    15.9214    13.2181 H       
  51 H51           12.9382    15.9454    13.1944 H       
  52 H52           13.9154    23.9640    15.0842 H       
  53 H53           13.8984    23.9736    13.3043 H       
  54 H54           10.0000    14.9621    15.3181 H       
  55 H55           23.3161    32.2228    13.0208 H       
  56 H56           10.5008    13.4486    17.3042 H       
  57 H57           24.8709    32.1511    11.0050 H       
@<TRIPOS>BOND
   1    1    2 1
   2    3    4 1
   3    5    9 1
   4    5   27 1
   5    5   40 1
   6    5   41 1
   7    6    7 1
   8    6   39 1
   9    6   42 1
  10    6   43 1
  11    7    8 1
  12    7   44 1
  13    7   45 1
  14    8   10 1
  15    8   13 2
  16    9   14 1
  17    9   15 2
  18   10   11 1
  19   11   12 2
  20   11   21 1
  21   12   13 1
  22   14   17 1
  23   15   16 1
  24   16   17 2
  25   17   18 1
  26   18   19 am
  27   18   46 1
  28   19   20 2
  29   19   25 1
  30   21   22 am
  31   21   47 1
  32   22   23 1
  33   22   24 2
  34   23   29 1
  35   23   48 1
  36   23   49 1
  37   25   26 1
  38   25   50 1
  39   25   51 1
  40   26   28 2
  41   26   33 1
  42   27   39 1
  43   27   52 1
  44   27   53 1
  45   28   31 1
  46   28   54 1
  47   29   30 2
  48   29   37 1
  49   30   35 1
  50   30   55 1
  51   31   32 2
  52   31   56 1
  53   32   33 1
  54   32   34 1
  55   35   36 2
  56   35   57 1
  57   36   37 1
  58   36   38 1

#	End of record

