#	Name: ASD01208481
#	Creating user name:	WinNT
#	Creation time:	15. 06. 2019 19:09

#	Modifying user name:	WinNT
#	Modification time:	15. 06. 2019 19:09

#	Program:	/corina/corina34_cracker 3.40 0067  02.08.2006

@<TRIPOS>MOLECULE
ASD01208481
  47   48    0    0    0
SMALL
NO_CHARGES


@<TRIPOS>ATOM
   1 C1            -0.0166     1.3835     0.0031 C.ar    
   2 C2             0.0022    -0.0039    -0.0055 C.ar    
   3 C3             1.2111    -0.6842    -0.0118 C.ar    
   4 C4             2.4041     0.0203    -0.0095 C.ar    
   5 C5             2.3887     1.4133    -0.0013 C.ar    
   6 C6             1.1726     2.0936     0.0050 C.ar    
   7 O7            -1.2030     2.0464     0.0039 O.3     
   8 O8             3.9098     3.6393     0.0099 O.3     
   9 B9             3.7386     2.2149     0.0018 Du      
  10 O10            5.0713     1.6835    -0.0023 O.3     
  11 C11            5.8098     2.5424     0.8918 C.3     
  12 C12            5.0223     3.8685     0.9001 C.3     
  13 C13            5.8962     5.0107     0.3782 C.3     
  14 C14            4.5203     4.1816     2.3111 C.3     
  15 C15            5.8522     1.9388     2.2971 C.3     
  16 C16            7.2281     2.7679     0.3642 C.3     
  17 O17            1.2253    -2.0432    -0.0197 O.3     
  18 C18            2.4994    -2.6779    -0.1459 C.3     
  19 C19            2.3168    -4.0732    -0.7464 C.3     
  20 C20            3.1484    -2.7977     1.2344 C.3     
  21 O21            1.5759    -4.8898     0.1626 O.3     
  22 C22            1.3486    -6.2210    -0.3047 C.3     
  23 H23           -0.9264    -0.5554    -0.0070 H       
  24 H24            3.3450    -0.5099    -0.0137 H       
  25 H25            1.1574     3.1735     0.0114 H       
  26 H26           -1.5488     2.2327     0.8876 H       
  27 H27            5.3084     5.9277     0.3358 H       
  28 H28            6.7449     5.1538     1.0471 H       
  29 H29            6.2580     4.7645    -0.6201 H       
  30 H30            3.9136     3.3517     2.6734 H       
  31 H31            5.3719     4.3264     2.9759 H       
  32 H32            3.9179     5.0897     2.2893 H       
  33 H33            6.3611     0.9754     2.2635 H       
  34 H34            6.3906     2.6110     2.9652 H       
  35 H35            4.8352     1.7998     2.6637 H       
  36 H36            7.1795     3.2126    -0.6298 H       
  37 H37            7.7635     3.4384     1.0364 H       
  38 H38            7.7517     1.8134     0.3100 H       
  39 H39            3.1389    -2.0827    -0.7977 H       
  40 H40            1.7749    -3.9951    -1.6890 H       
  41 H41            3.2936    -4.5226    -0.9251 H       
  42 H42            3.2784    -1.8037     1.6623 H       
  43 H43            2.5088    -3.3929     1.8862 H       
  44 H44            4.1202    -3.2819     1.1382 H       
  45 H45            2.3054    -6.7149    -0.4743 H       
  46 H46            0.7804    -6.7761     0.4417 H       
  47 H47            0.7867    -6.1874    -1.2381 H       
@<TRIPOS>BOND
   1    1    2 ar
   2    1    6 ar
   3    1    7 1
   4    2    3 ar
   5    2   23 1
   6    3    4 ar
   7    3   17 1
   8    4    5 ar
   9    4   24 1
  10    5    6 ar
  11    5    9 1
  12    6   25 1
  13    7   26 1
  14    8    9 1
  15    8   12 1
  16    9   10 1
  17   10   11 1
  18   11   12 1
  19   11   15 1
  20   11   16 1
  21   12   13 1
  22   12   14 1
  23   13   27 1
  24   13   28 1
  25   13   29 1
  26   14   30 1
  27   14   31 1
  28   14   32 1
  29   15   33 1
  30   15   34 1
  31   15   35 1
  32   16   36 1
  33   16   37 1
  34   16   38 1
  35   17   18 1
  36   18   19 1
  37   18   20 1
  38   18   39 1
  39   19   21 1
  40   19   40 1
  41   19   41 1
  42   20   42 1
  43   20   43 1
  44   20   44 1
  45   21   22 1
  46   22   45 1
  47   22   46 1
  48   22   47 1

#	End of record

