#	Name: ASD00069408
#	Creating user name:	WinNT
#	Creation time:	15. 06. 2019 18:29

#	Modifying user name:	WinNT
#	Modification time:	15. 06. 2019 18:29

#	Program:	/corina/corina34_cracker 3.40 0067  02.08.2006

@<TRIPOS>MOLECULE
ASD00069408
  84   87    0    0    0
SMALL
NO_CHARGES


@<TRIPOS>ATOM
   1 C1             0.0258     1.2653     0.9051 C.2     
   2 C2             0.0327    -0.0372     0.5264 C.2     
   3 C3             2.0926     0.6038     0.5931 C.2     
   4 N4             1.2962    -0.4142     0.3436 N.2     
   5 Br5           -1.4927    -1.1312     0.2978 Br      
   6 C6             3.5633     0.5909     0.5033 C.2     
   7 O7             4.1970     1.5973     0.7584 O.2     
   8 N8             4.2063    -0.5360     0.1384 N.am    
   9 C9             5.5927    -0.5185    -0.0589 C.ar    
  10 C10            6.3144    -1.7109    -0.0531 C.ar    
  11 C11            6.2507     0.6855    -0.2665 C.ar    
  12 C12            7.6187     0.7016    -0.4610 C.ar    
  13 C13            8.3373    -0.4802    -0.4498 C.ar    
  14 C14            7.6892    -1.6864    -0.2494 C.ar    
  15 N15            5.6554    -2.9301     0.1506 N.3     
  16 C16            6.0979    -3.5655     1.3984 C.3     
  17 C17            5.2439    -4.8082     1.6682 C.3     
  18 C18            5.3609    -5.7665     0.4901 C.3     
  19 C19            4.9751    -5.0772    -0.8122 C.3     
  20 C20            5.8382    -3.8256    -0.9988 C.3     
  21 F21            8.3942    -2.8388    -0.2386 F       
  22 C22            6.7815    -6.3445     0.3988 C.3     
  23 C23            5.4016    -7.8945     1.5927 C.3     
  24 C24            4.4738    -7.0097     0.7211 C.3     
  25 N25            1.3220     1.6749     0.9489 N.pl3   
  26 Si26           0.2497     7.7263     2.7677 Si      
  27 C27           -0.2192     5.9876     2.2904 C.3     
  28 C28            1.0461     5.1842     1.9834 C.3     
  29 O29            0.6864     3.8505     1.6174 O.3     
  30 C30            1.1695     8.5298     1.3608 C.3     
  31 C31           -1.2910     8.7047     3.1415 C.3     
  32 C32            1.3397     7.6832     4.2780 C.3     
  33 C33            1.8014     3.0117     1.3089 C.3     
  34 N34            6.7582    -7.6568     1.0651 N.am    
  35 O35            7.6533    -9.6784     1.8105 O.3     
  36 C36            8.8210   -10.5378     1.8900 C.3     
  37 C37            9.9417    -9.8081     2.6332 C.3     
  38 C38            8.4603   -11.8200     2.6429 C.3     
  39 C39            9.2914   -10.8909     0.4776 C.3     
  40 C40            7.8028    -8.5014     1.1742 C.2     
  41 O41            8.8796    -8.2005     0.6982 O.2     
  42 H42           -0.8448     1.8651     1.1257 H       
  43 H43            3.7088    -1.3591     0.0125 H       
  44 H44            5.6933     1.6105    -0.2763 H       
  45 H45            8.1284     1.6399    -0.6227 H       
  46 H46            9.4062    -0.4621    -0.6028 H       
  47 H47            7.1444    -3.8565     1.3068 H       
  48 H48            5.9870    -2.8621     2.2236 H       
  49 H49            5.5956    -5.3014     2.5744 H       
  50 H50            4.2023    -4.5132     1.7950 H       
  51 H51            5.1380    -5.7591    -1.6468 H       
  52 H52            3.9238    -4.7918    -0.7751 H       
  53 H53            5.5392    -3.3107    -1.9119 H       
  54 H54            6.8867    -4.1146    -1.0712 H       
  55 H55            7.0673    -6.4638    -0.6463 H       
  56 H56            7.4846    -5.6834     0.9055 H       
  57 H57            5.3427    -7.5908     2.6379 H       
  58 H58            5.1323    -8.9454     1.4867 H       
  59 H59            3.5645    -6.7461     1.2613 H       
  60 H60            4.2373    -7.5019    -0.2222 H       
  61 H61           -0.7574     5.5176     3.1135 H       
  62 H62           -0.8569     6.0129     1.4068 H       
  63 H63            1.5843     5.6542     1.1603 H       
  64 H64            1.6838     5.1589     2.8671 H       
  65 H65            0.5318     8.5551     0.4772 H       
  66 H66            1.4439     9.5471     1.6401 H       
  67 H67            2.0710     7.9574     1.1421 H       
  68 H68           -1.8291     8.2346     3.9646 H       
  69 H69           -1.0166     9.7220     3.4207 H       
  70 H70           -1.9287     8.7300     2.2578 H       
  71 H71            2.2411     7.1108     4.0593 H       
  72 H72            1.6140     8.7005     4.5572 H       
  73 H73            0.8015     7.2131     5.1011 H       
  74 H74            2.4547     2.9413     2.1785 H       
  75 H75            2.3552     3.4367     0.4718 H       
  76 H76            9.6065    -9.5565     3.6395 H       
  77 H77           10.8182   -10.4532     2.6929 H       
  78 H78           10.1986    -8.8946     2.0969 H       
  79 H79            7.6619   -12.3399     2.1134 H       
  80 H80            9.3368   -12.4651     2.7025 H       
  81 H81            8.1251   -11.5684     3.6491 H       
  82 H82            9.5483    -9.9775    -0.0588 H       
  83 H83           10.1679   -11.5361     0.5372 H       
  84 H84            8.4930   -11.4108    -0.0519 H       
@<TRIPOS>BOND
   1    1    2 2
   2    1   25 1
   3    1   42 1
   4    2    5 1
   5    2    4 1
   6    3    4 2
   7    3    6 1
   8    3   25 1
   9    6    7 2
  10    6    8 am
  11    8    9 1
  12    8   43 1
  13    9   10 ar
  14    9   11 ar
  15   10   15 1
  16   10   14 ar
  17   11   12 ar
  18   11   44 1
  19   12   13 ar
  20   12   45 1
  21   13   14 ar
  22   13   46 1
  23   14   21 1
  24   15   16 1
  25   15   20 1
  26   16   17 1
  27   16   47 1
  28   16   48 1
  29   17   18 1
  30   17   49 1
  31   17   50 1
  32   18   19 1
  33   18   22 1
  34   18   24 1
  35   19   20 1
  36   19   51 1
  37   19   52 1
  38   20   53 1
  39   20   54 1
  40   22   34 1
  41   22   55 1
  42   22   56 1
  43   23   24 1
  44   23   34 1
  45   23   57 1
  46   23   58 1
  47   24   59 1
  48   24   60 1
  49   25   33 1
  50   26   27 1
  51   26   30 1
  52   26   31 1
  53   26   32 1
  54   27   28 1
  55   27   61 1
  56   27   62 1
  57   28   29 1
  58   28   63 1
  59   28   64 1
  60   29   33 1
  61   30   65 1
  62   30   66 1
  63   30   67 1
  64   31   68 1
  65   31   69 1
  66   31   70 1
  67   32   71 1
  68   32   72 1
  69   32   73 1
  70   33   74 1
  71   33   75 1
  72   34   40 am
  73   35   36 1
  74   35   40 1
  75   36   37 1
  76   36   38 1
  77   36   39 1
  78   37   76 1
  79   37   77 1
  80   37   78 1
  81   38   79 1
  82   38   80 1
  83   38   81 1
  84   39   82 1
  85   39   83 1
  86   39   84 1
  87   40   41 2

#	End of record

