#	Name: ASD03910011
#	Creating user name:	WinNT
#	Creation time:	15. 06. 2019 20:47

#	Modifying user name:	WinNT
#	Modification time:	15. 06. 2019 20:47

#	Program:	/corina/corina34_cracker 3.40 0067  02.08.2006

@<TRIPOS>MOLECULE
ASD03910011
  53   53    0    0    0
SMALL
NO_CHARGES


@<TRIPOS>ATOM
   1 C1             0.7276     1.3865     0.3694 C.3     
   2 C2             0.5830    -0.1359     0.3204 C.3     
   3 C3             0.9899    -0.7305     1.6701 C.3     
   4 C4             0.0862    -0.1674     2.7688 C.3     
   5 C5             0.2308     1.3549     2.8178 C.3     
   6 C6            -0.1761     1.9496     1.4681 C.3     
   7 O7             2.0869     1.7270     0.6496 O.3     
   8 O8            -0.7763    -0.4764     0.0403 O.3     
   9 P9            -1.2185    -1.3263    -1.2537 P.3     
  10 O10           -2.7973    -1.6330    -1.1804 O.3     
  11 O11           -0.8972    -0.4815    -2.5861 O.3     
  12 O12           -0.4691    -2.6021    -1.2857 O.2     
  13 Na13          -3.4904    -2.6826    -2.7225 Du      
  14 Na14          -1.8404     1.2681    -2.6822 Du      
  15 P15            2.9941     2.6064    -0.3483 P.3     
  16 O16            4.4180     2.9033     0.3420 O.3     
  17 O17            3.2216     1.7965    -1.7210 O.3     
  18 Na18           5.6519     3.9872    -0.7817 Du      
  19 Na19           4.1365     0.0450    -1.4853 Du      
  20 O20            2.3100     3.8864    -0.6383 O.2     
  21 O21           -0.0410     3.3714     1.5138 O.3     
  22 P22           -1.2752     4.3776     1.2764 P.3     
  23 O23           -2.3518     4.1949     2.4594 O.3     
  24 O24           -0.7371     5.8950     1.2701 O.3     
  25 O25           -1.9148     4.0757    -0.0237 O.2     
  26 Na26          -1.6300     4.5694     4.2757 Du      
  27 Na27          -2.1595     7.2571     0.9850 Du      
  28 O28           -0.6132     1.8809     3.8439 O.3     
  29 P29           -0.0509     2.7206     5.0972 P.3     
  30 O30            0.7467     3.8663     4.6055 O.2     
  31 O31           -1.2853     3.2640     5.9764 O.3     
  32 O32            0.8783     1.7706     6.0062 O.3     
  33 Na33          -0.7396     4.3260     7.5685 Du      
  34 Na34          -0.0646     0.1796     6.7410 Du      
  35 O35           -1.2731    -0.5080     2.4887 O.3     
  36 P36           -2.5237     0.2501     3.1620 P.3     
  37 O37           -2.5734     1.6473     2.6762 O.2     
  38 O38           -3.8879    -0.5058     2.7625 O.3     
  39 O39           -2.3560     0.2443     4.7632 O.3     
  40 Na40          -5.5269     0.3239     3.5275 Du      
  41 Na41          -2.1656    -1.5734     5.5505 Du      
  42 P42            0.8175    -2.5444     1.6118 P.3     
  43 O43            1.6549    -3.1232     0.3645 O.3     
  44 O44            1.3816    -3.1813     2.9787 O.3     
  45 O45           -0.6106    -2.8995     1.4546 O.2     
  46 Na46           1.5593    -5.1017     0.1736 Du      
  47 Na47           3.2559    -2.6625     3.4004 Du      
  48 H48            0.4377     1.8101    -0.5922 H       
  49 H49            1.2268    -0.5370    -0.4623 H       
  50 H50            2.0267    -0.4707     1.8839 H       
  51 H51            0.3761    -0.5910     3.7304 H       
  52 H52            1.2676     1.6147     3.0315 H       
  53 H53           -1.2129     1.6898     1.2544 H       
@<TRIPOS>BOND
   1    1    2 1
   2    1    7 1
   3    1    6 1
   4    1   48 1
   5    2    3 1
   6    2    8 1
   7    2   49 1
   8    3    4 1
   9    3   42 1
  10    3   50 1
  11    4    5 1
  12    4   35 1
  13    4   51 1
  14    5    6 1
  15    5   28 1
  16    5   52 1
  17    6   21 1
  18    6   53 1
  19    7   15 1
  20    8    9 1
  21    9   10 1
  22    9   11 1
  23    9   12 2
  24   10   13 1
  25   11   14 1
  26   15   16 1
  27   15   17 1
  28   15   20 2
  29   16   18 1
  30   17   19 1
  31   21   22 1
  32   22   23 1
  33   22   24 1
  34   22   25 2
  35   23   26 1
  36   24   27 1
  37   28   29 1
  38   29   30 2
  39   29   31 1
  40   29   32 1
  41   31   33 1
  42   32   34 1
  43   35   36 1
  44   36   37 2
  45   36   38 1
  46   36   39 1
  47   38   40 1
  48   39   41 1
  49   42   43 1
  50   42   44 1
  51   42   45 2
  52   43   46 1
  53   44   47 1

#	End of record

