#	Name: ASD03091790
#	Creating user name:	WinNT
#	Creation time:	15. 06. 2019 20:31

#	Modifying user name:	WinNT
#	Modification time:	15. 06. 2019 20:31

#	Program:	/corina/corina34_cracker 3.40 0067  02.08.2006

@<TRIPOS>MOLECULE
ASD03091790
  35   37    0    0    0
SMALL
NO_CHARGES


@<TRIPOS>ATOM
   1 C1            -0.0121     1.4523    -0.0369 C.3     
   2 C2             0.0693    -0.0738    -0.1115 C.3     
   3 N3             0.7685    -0.5866     1.0736 N.3     
   4 C4             0.0410    -0.2521     2.3046 C.3     
   5 C5            -0.0419     1.2685     2.4531 C.3     
   6 C6             1.3746     1.8483     2.5291 C.3     
   7 N7             2.0554     1.6004     1.2509 N.am    
   8 C8             1.4049     2.0340     0.0069 C.3     
   9 C9             3.2546     0.9861     1.2201 C.2     
  10 O10            3.7551     0.6812     0.1531 O.2     
  11 C11            3.9550     0.6856     2.4692 C.2     
  12 C12            5.1055    -0.0635     2.5959 C.2     
  13 C13           -0.7609     1.8582     1.2361 C.3     
  14 O14            3.5933     1.0973     3.7038 O.3     
  15 C15            4.4684     0.6317     4.6042 C.2     
  16 C16            5.4162    -0.0883     3.9672 C.2     
  17 C17            4.4074     0.8760     6.0900 C.3     
  18 F18            5.7977    -0.6570     1.5990 F       
  19 H19           -0.5365     1.8333    -0.9133 H       
  20 H20           -0.9376    -0.4899    -0.1475 H       
  21 H21            0.6146    -0.3650    -1.0092 H       
  22 H22            0.9196    -1.5817     1.0020 H       
  23 H23           -0.9656    -0.6675     2.2558 H       
  24 H24            0.5659    -0.6726     3.1623 H       
  25 H25           -0.5877     1.5174     3.3632 H       
  26 H26            1.3210     2.9214     2.7126 H       
  27 H27            1.9248     1.3644     3.3361 H       
  28 H28            1.9751     1.6724    -0.8488 H       
  29 H29            1.3541     3.1225    -0.0188 H       
  30 H30           -0.7805     2.9451     1.3160 H       
  31 H31           -1.7812     1.4768     1.1957 H       
  32 H32            6.2560    -0.5898     4.4252 H       
  33 H33            3.5384     1.4918     6.3216 H       
  34 H34            4.3266    -0.0775     6.6120 H       
  35 H35            5.3132     1.3904     6.4111 H       
@<TRIPOS>BOND
   1    1    2 1
   2    1    8 1
   3    1   13 1
   4    1   19 1
   5    2    3 1
   6    2   20 1
   7    2   21 1
   8    3    4 1
   9    3   22 1
  10    4    5 1
  11    4   23 1
  12    4   24 1
  13    5    6 1
  14    5   13 1
  15    5   25 1
  16    6    7 1
  17    6   26 1
  18    6   27 1
  19    7    8 1
  20    7    9 am
  21    8   28 1
  22    8   29 1
  23    9   10 2
  24    9   11 1
  25   11   12 2
  26   11   14 1
  27   12   18 1
  28   12   16 1
  29   13   30 1
  30   13   31 1
  31   14   15 1
  32   15   16 2
  33   15   17 1
  34   16   32 1
  35   17   33 1
  36   17   34 1
  37   17   35 1

#	End of record

