#	Name: ASD09740088
#	Creating user name:	WinNT
#	Creation time:	15. 06. 2019 21:22

#	Modifying user name:	WinNT
#	Modification time:	15. 06. 2019 21:22

#	Program:	/corina/corina34_cracker 3.40 0067  02.08.2006

@<TRIPOS>MOLECULE
ASD09740088
  30   32    0    0    0
SMALL
NO_CHARGES


@<TRIPOS>ATOM
   1 O1            -0.0144     1.2085     0.0087 O.3     
   2 N2             0.0021    -0.0041     0.0020 N.2     
   3 C3             1.2410     1.6827    -0.0008 C.2     
   4 N4             2.0453     0.6366    -0.0141 N.2     
   5 C5             1.2345    -0.4419    -0.0121 C.2     
   6 C6             1.6625    -1.8640    -0.0234 C.ar    
   7 C7             1.6456     3.1048     0.0026 C.ar    
   8 C8             0.7215    -2.8964    -0.0200 C.ar    
   9 C9             3.0169    -2.2054    -0.0436 C.ar    
  10 C10            3.3713    -3.5395    -0.0540 C.ar    
  11 N11            2.4512    -4.4843    -0.0451 N.ar    
  12 C12            1.1624    -4.2046    -0.0313 C.ar    
  13 C13            2.9962     3.4465    -0.0089 C.ar    
  14 C14            3.3689     4.7894    -0.0062 C.ar    
  15 C15            2.3868     5.7834     0.0081 C.ar    
  16 C16            1.0505     5.4374     0.0195 C.ar    
  17 C17            0.6746     4.1085     0.0115 C.ar    
  18 C18           -0.0032     6.5148     0.0349 C.3     
  19 F19            0.6137     7.7704     0.0348 F       
  20 F20           -0.8118     6.3924    -1.1002 F       
  21 F21           -0.7896     6.3816     1.1842 F       
  22 C22            4.7547     5.1497    -0.0175 C.1     
  23 N23            5.8541     5.4356    -0.0264 N.1     
  24 H24           -0.3353    -2.6745    -0.0083 H       
  25 H25            3.7757    -1.4368    -0.0513 H       
  26 H26            4.4160    -3.8132    -0.0700 H       
  27 H27            0.4425    -5.0095    -0.0241 H       
  28 H28            3.7511     2.6741    -0.0196 H       
  29 H29            2.6738     6.8246     0.0106 H       
  30 H30           -0.3727     3.8448     0.0204 H       
@<TRIPOS>BOND
   1    1    2 1
   2    1    3 1
   3    2    5 2
   4    3    4 2
   5    3    7 1
   6    4    5 1
   7    5    6 1
   8    6    8 ar
   9    6    9 ar
  10    7   13 ar
  11    7   17 ar
  12    8   12 ar
  13    8   24 1
  14    9   10 ar
  15    9   25 1
  16   10   11 ar
  17   10   26 1
  18   11   12 ar
  19   12   27 1
  20   13   14 ar
  21   13   28 1
  22   14   15 ar
  23   14   22 1
  24   15   16 ar
  25   15   29 1
  26   16   17 ar
  27   16   18 1
  28   17   30 1
  29   18   19 1
  30   18   20 1
  31   18   21 1
  32   22   23 3

#	End of record

