#	Name: ASD01912393
#	Creating user name:	WinNT
#	Creation time:	15. 06. 2019 19:59

#	Modifying user name:	WinNT
#	Modification time:	15. 06. 2019 19:59

#	Program:	/corina/corina34_cracker 3.40 0067  02.08.2006

@<TRIPOS>MOLECULE
ASD01912393
  44   46    0    0    0
SMALL
NO_CHARGES


@<TRIPOS>ATOM
   1 C1            -0.9294     2.4144     0.9994 C.ar    
   2 C2            -1.0793     1.0463     1.1392 C.ar    
   3 C3             0.0476     0.2361     1.1730 C.ar    
   4 C4             1.2921     0.8300     1.0647 C.ar    
   5 C5             1.3714     2.2183     0.9258 C.ar    
   6 N6             0.2659     2.9576     0.8981 N.ar    
   7 C7             2.6518     2.8495     0.8124 C.1     
   8 C8             3.7015     3.3670     0.7195 C.1     
   9 C9             4.9819     3.9982     0.6062 C.2     
  10 N10            5.1877     7.8659    -0.6958 N.3     
  11 C11            6.3422     6.9711    -0.8451 C.3     
  12 C12            6.4035     6.0150     0.3517 C.3     
  13 C13            5.0628     5.3214     0.4735 C.2     
  14 C14            3.8173     6.1820     0.4392 C.3     
  15 C15            3.9203     7.1275    -0.7632 C.3     
  16 C16            4.2588     8.9567    -2.6449 C.ar    
  17 C17            5.2217     8.8898    -1.6456 C.ar    
  18 C18            6.2211     9.8589    -1.6046 C.ar    
  19 C19            6.2123    10.8544    -2.5680 C.ar    
  20 C20            5.2203    10.8537    -3.5307 C.ar    
  21 N21            4.2875     9.9214    -3.5423 N.ar    
  22 C22            7.2855     9.8257    -0.5383 C.3     
  23 C23           -2.1516     3.2950     0.9563 C.3     
  24 H24           -2.0648     0.6121     1.2218 H       
  25 H25           -0.0454    -0.8343     1.2817 H       
  26 H26            2.1895     0.2295     1.0876 H       
  27 H27            5.8819     3.4016     0.6282 H       
  28 H28            6.2396     6.3957    -1.7652 H       
  29 H29            7.2572     7.5619    -0.8856 H       
  30 H30            7.1871     5.2746     0.1909 H       
  31 H31            6.6102     6.5781     1.2618 H       
  32 H32            2.9360     5.5492     0.3347 H       
  33 H33            3.7464     6.7631     1.3587 H       
  34 H34            3.0881     7.8312    -0.7446 H       
  35 H35            3.8859     6.5477    -1.6855 H       
  36 H36            3.4815     8.2082    -2.6894 H       
  37 H37            6.9716    11.6224    -2.5667 H       
  38 H38            5.2087    11.6278    -4.2837 H       
  39 H39            8.1572     9.2884    -0.9117 H       
  40 H40            7.5709    10.8450    -0.2780 H       
  41 H41            6.8982     9.3197     0.3461 H       
  42 H42           -2.4100     3.6077     1.9680 H       
  43 H43           -1.9447     4.1740     0.3459 H       
  44 H44           -2.9841     2.7401     0.5238 H       
@<TRIPOS>BOND
   1    1    2 ar
   2    1    6 ar
   3    1   23 1
   4    2    3 ar
   5    2   24 1
   6    3    4 ar
   7    3   25 1
   8    4    5 ar
   9    4   26 1
  10    5    6 ar
  11    5    7 1
  12    7    8 3
  13    8    9 1
  14    9   13 2
  15    9   27 1
  16   10   11 1
  17   10   15 1
  18   10   17 1
  19   11   12 1
  20   11   28 1
  21   11   29 1
  22   12   13 1
  23   12   30 1
  24   12   31 1
  25   13   14 1
  26   14   15 1
  27   14   32 1
  28   14   33 1
  29   15   34 1
  30   15   35 1
  31   16   17 ar
  32   16   21 ar
  33   16   36 1
  34   17   18 ar
  35   18   19 ar
  36   18   22 1
  37   19   20 ar
  38   19   37 1
  39   20   21 ar
  40   20   38 1
  41   22   39 1
  42   22   40 1
  43   22   41 1
  44   23   42 1
  45   23   43 1
  46   23   44 1

#	End of record

