#	Name: ASD09610024
#	Creating user name:	WinNT
#	Creation time:	15. 06. 2019 21:22

#	Modifying user name:	WinNT
#	Modification time:	15. 06. 2019 21:22

#	Program:	/corina/corina34_cracker 3.40 0067  02.08.2006

@<TRIPOS>MOLECULE
ASD09610024
  46   47    0    0    0
SMALL
NO_CHARGES


@<TRIPOS>ATOM
   1 C1             0.3159     1.4008     0.2469 C.2     
   2 C2             0.0743    -0.0633    -0.0163 C.3     
   3 O3             1.4295     1.8640     0.1200 O.2     
   4 N4            -0.7067     2.1965     0.6178 N.am    
   5 C5            -0.4542     3.5941     0.9773 C.3     
   6 O6             1.2684    -0.6588    -0.5275 O.3     
   7 C7             1.3737    -0.6195    -1.9521 C.3     
   8 C8            -0.3176    -0.7466     1.2685 C.ar    
   9 C9            -1.6529    -0.9465     1.5658 C.ar    
  10 C10           -2.0123    -1.5731     2.7441 C.ar    
  11 C11           -1.0364    -2.0005     3.6253 C.ar    
  12 C12            0.2985    -1.8015     3.3277 C.ar    
  13 C13            0.6581    -1.1785     2.1470 C.ar    
  14 C14           -2.7166    -0.4807     0.6053 C.3     
  15 O15           -4.0062    -0.6917     1.1837 O.3     
  16 C16           -5.0832    -0.3226     0.4415 C.ar    
  17 C17           -6.3653    -0.4992     0.9417 C.ar    
  18 C18           -7.4582    -0.1233     0.1854 C.ar    
  19 C19           -7.2755     0.4282    -1.0695 C.ar    
  20 C20           -5.9991     0.6047    -1.5703 C.ar    
  21 C21           -4.9023     0.2364    -0.8150 C.ar    
  22 C22           -5.8036     1.2055    -2.9385 C.3     
  23 C23           -6.5652    -1.1010     2.3088 C.3     
  24 H24           -0.7280    -0.1738    -0.7459 H       
  25 H25           -1.6099     1.8439     0.6467 H       
  26 H26           -1.3942     4.0753     1.2474 H       
  27 H27            0.2306     3.6333     1.8244 H       
  28 H28           -0.0112     4.1135     0.1276 H       
  29 H29            2.3068    -1.0909    -2.2606 H       
  30 H30            0.5329    -1.1548    -2.3934 H       
  31 H31            1.3615     0.4171    -2.2889 H       
  32 H32           -3.0554    -1.7287     2.9766 H       
  33 H33           -1.3172    -2.4895     4.5464 H       
  34 H34            1.0608    -2.1350     4.0162 H       
  35 H35            1.7014    -1.0263     1.9127 H       
  36 H36           -2.5803     0.5809     0.3990 H       
  37 H37           -2.6387    -1.0444    -0.3244 H       
  38 H38           -8.4564    -0.2604     0.5744 H       
  39 H39           -8.1314     0.7212    -1.6594 H       
  40 H40           -3.9052     0.3789    -1.2048 H       
  41 H41           -5.7226     2.2890    -2.8513 H       
  42 H42           -4.8914     0.8076    -3.3831 H       
  43 H43           -6.6554     0.9545    -3.5706 H       
  44 H44           -6.5795    -0.3078     3.0564 H       
  45 H45           -7.5120    -1.6405     2.3334 H       
  46 H46           -5.7487    -1.7898     2.5255 H       
@<TRIPOS>BOND
   1    1    2 1
   2    1    3 2
   3    1    4 am
   4    2    6 1
   5    2    8 1
   6    2   24 1
   7    4    5 1
   8    4   25 1
   9    5   26 1
  10    5   27 1
  11    5   28 1
  12    6    7 1
  13    7   29 1
  14    7   30 1
  15    7   31 1
  16    8    9 ar
  17    8   13 ar
  18    9   10 ar
  19    9   14 1
  20   10   11 ar
  21   10   32 1
  22   11   12 ar
  23   11   33 1
  24   12   13 ar
  25   12   34 1
  26   13   35 1
  27   14   15 1
  28   14   36 1
  29   14   37 1
  30   15   16 1
  31   16   17 ar
  32   16   21 ar
  33   17   18 ar
  34   17   23 1
  35   18   19 ar
  36   18   38 1
  37   19   20 ar
  38   19   39 1
  39   20   21 ar
  40   20   22 1
  41   21   40 1
  42   22   41 1
  43   22   42 1
  44   22   43 1
  45   23   44 1
  46   23   45 1
  47   23   46 1

#	End of record

