#	Name: ASD01815929
#	Creating user name:	WinNT
#	Creation time:	15. 06. 2019 19:34

#	Modifying user name:	WinNT
#	Modification time:	15. 06. 2019 19:34

#	Program:	/corina/corina34_cracker 3.40 0067  02.08.2006

@<TRIPOS>MOLECULE
ASD01815929
  66   72    0    0    0
SMALL
NO_CHARGES


@<TRIPOS>ATOM
   1 C1             0.1064     1.4781     0.3815 C.ar    
   2 C2             0.0863     0.0931     0.3728 C.ar    
   3 C3             1.2566    -0.6272     0.2336 C.ar    
   4 C4             2.4729     0.0371     0.1002 C.ar    
   5 C5             2.4904     1.4412     0.1094 C.ar    
   6 C6             1.3032     2.1567     0.2504 C.ar    
   7 N7             3.6499    -0.6795    -0.0392 N.pl3   
   8 C8             4.8508    -0.0941    -0.1710 C.2     
   9 C9             4.9914     1.2716    -0.1761 C.2     
  10 C10            3.7897     2.1249    -0.0333 C.2     
  11 C11            6.1081     2.2038    -0.2956 C.2     
  12 N12            5.5738     3.4421    -0.2255 N.am    
  13 N13            4.1876     3.3642    -0.0689 N.2     
  14 C14            6.3045     4.6336    -0.2991 C.ar    
  15 O15            7.2874     1.9211    -0.4311 O.2     
  16 C16            3.5814    -2.1429    -0.0425 C.3     
  17 C17            3.4349    -2.6357    -1.4591 C.ar    
  18 C18            4.5543    -2.7846    -2.2571 C.ar    
  19 C19            4.4232    -3.2356    -3.5560 C.ar    
  20 C20            3.1659    -3.5401    -4.0600 C.ar    
  21 C21            2.0438    -3.3900    -3.2562 C.ar    
  22 C22            2.1819    -2.9435    -1.9565 C.ar    
  23 N23            3.0295    -3.9976    -5.3781 N.pl3   
  24 C24            1.8696    -4.3278    -5.9899 C.2     
  25 F25            1.3218     3.5075     0.2586 F       
  26 F26            1.2210    -1.9777     0.2273 F       
  27 C27            2.1663    -4.7196    -7.2507 C.2     
  28 C28            3.5526    -4.6262    -7.4159 C.2     
  29 N29            4.0700    -4.1880    -6.2965 N.2     
  30 C30            7.1398     4.8719    -1.3827 C.ar    
  31 C31            7.8595     6.0488    -1.4523 C.ar    
  32 C32            7.7494     6.9889    -0.4443 C.ar    
  33 C33            6.9184     6.7546     0.6362 C.ar    
  34 C34            6.1914     5.5829     0.7088 C.ar    
  35 C35            5.2862     5.3286     1.8865 C.3     
  36 N36            5.9602     4.4352     2.8381 N.3     
  37 C37            5.2118     4.3521     4.1058 C.3     
  38 C38            4.8923     2.8625     4.3514 C.3     
  39 C39            5.9660     2.1304     3.5040 C.3     
  40 C40            6.0951     3.0724     2.2810 C.3     
  41 H41           -0.8163     2.0294     0.4866 H       
  42 H42           -0.8537    -0.4287     0.4761 H       
  43 H43            5.7292    -0.7136    -0.2753 H       
  44 H44            4.4945    -2.5504     0.3913 H       
  45 H45            2.7232    -2.4678     0.5458 H       
  46 H46            5.5321    -2.5476    -1.8645 H       
  47 H47            5.2978    -3.3510    -4.1790 H       
  48 H48            1.0645    -3.6257    -3.6457 H       
  49 H49            1.3094    -2.8266    -1.3307 H       
  50 H50            0.8837    -4.2867    -5.5509 H       
  51 H51            1.4580    -5.0466    -7.9976 H       
  52 H52            4.1007    -4.8695    -8.3141 H       
  53 H53            7.2267     4.1377    -2.1700 H       
  54 H54            8.5093     6.2347    -2.2947 H       
  55 H55            8.3138     7.9079    -0.5007 H       
  56 H56            6.8350     7.4908     1.4220 H       
  57 H57            5.0543     6.2738     2.3773 H       
  58 H58            4.3634     4.8623     1.5414 H       
  59 H59            5.8210     4.7402     4.9222 H       
  60 H60            4.2859     4.9220     4.0279 H       
  61 H61            4.9995     2.6143     5.4073 H       
  62 H62            3.8904     2.6198     3.9972 H       
  63 H63            6.9098     2.0612     4.0449 H       
  64 H64            5.6179     1.1429     3.2012 H       
  65 H65            5.2981     2.8748     1.5641 H       
  66 H66            7.0700     2.9501     1.8091 H       
@<TRIPOS>BOND
   1    1    2 ar
   2    1    6 ar
   3    1   41 1
   4    2    3 ar
   5    2   42 1
   6    3    4 ar
   7    3   26 1
   8    4    5 ar
   9    4    7 1
  10    5    6 ar
  11    5   10 1
  12    6   25 1
  13    7    8 1
  14    7   16 1
  15    8    9 2
  16    8   43 1
  17    9   10 1
  18    9   11 1
  19   10   13 2
  20   11   12 am
  21   11   15 2
  22   12   13 1
  23   12   14 1
  24   14   30 ar
  25   14   34 ar
  26   16   17 1
  27   16   44 1
  28   16   45 1
  29   17   18 ar
  30   17   22 ar
  31   18   19 ar
  32   18   46 1
  33   19   20 ar
  34   19   47 1
  35   20   21 ar
  36   20   23 1
  37   21   22 ar
  38   21   48 1
  39   22   49 1
  40   23   24 1
  41   23   29 1
  42   24   27 2
  43   24   50 1
  44   27   28 1
  45   27   51 1
  46   28   29 2
  47   28   52 1
  48   30   31 ar
  49   30   53 1
  50   31   32 ar
  51   31   54 1
  52   32   33 ar
  53   32   55 1
  54   33   34 ar
  55   33   56 1
  56   34   35 1
  57   35   36 1
  58   35   57 1
  59   35   58 1
  60   36   37 1
  61   36   40 1
  62   37   38 1
  63   37   59 1
  64   37   60 1
  65   38   39 1
  66   38   61 1
  67   38   62 1
  68   39   40 1
  69   39   63 1
  70   39   64 1
  71   40   65 1
  72   40   66 1

#	End of record

