#	Name: ASD02560248
#	Creating user name:	WinNT
#	Creation time:	15. 06. 2019 20:24

#	Modifying user name:	WinNT
#	Modification time:	15. 06. 2019 20:24

#	Program:	/corina/corina34_cracker 3.40 0067  02.08.2006

@<TRIPOS>MOLECULE
ASD02560248
  34   36    0    0    0
SMALL
NO_CHARGES


@<TRIPOS>ATOM
   1 C1             0.0128     1.3446     0.2689 C.2     
   2 N2             0.0195     0.0007     0.1817 N.2     
   3 C3             1.2615    -0.4060     0.0852 C.2     
   4 O4             2.0662     0.6680     0.1091 O.3     
   5 C5             1.2859     1.7646     0.2241 C.2     
   6 C6             1.7579     3.1943     0.2894 C.3     
   7 N7             1.6740    -1.7215    -0.0232 N.pl3   
   8 C8             0.7449    -2.7540     0.0848 C.ar    
   9 C9             0.9488    -3.9463    -0.6035 C.ar    
  10 C10            0.0326    -4.9683    -0.4994 C.ar    
  11 C11           -1.1036    -4.8078     0.2992 C.ar    
  12 C12           -1.3051    -3.6089     0.9897 C.ar    
  13 C13           -0.3822    -2.5929     0.8852 C.ar    
  14 C14            1.9951     3.5798     1.7268 C.ar    
  15 C15            3.2403     3.3860     2.2995 C.ar    
  16 C16            3.4570     3.7406     3.6203 C.ar    
  17 C17            2.4307     4.2879     4.3668 C.ar    
  18 C18            1.1869     4.4815     3.7962 C.ar    
  19 C19            0.9696     4.1334     2.4737 C.ar    
  20 F20           -0.2462     4.3232     1.9160 F       
  21 F21            4.2435     2.8505     1.5701 F       
  22 C22           -2.0590    -5.8687     0.4095 C.1     
  23 N23           -2.8170    -6.7103     0.4969 N.1     
  24 H24           -0.8618     1.9724     0.3549 H       
  25 H25            2.6865     3.2963    -0.2722 H       
  26 H26            0.9991     3.8475    -0.1416 H       
  27 H27            2.6102    -1.9253    -0.1743 H       
  28 H28            1.8267    -4.0696    -1.2203 H       
  29 H29            0.1911    -5.8930    -1.0344 H       
  30 H30           -2.1817    -3.4816     1.6075 H       
  31 H31           -0.5372    -1.6665     1.4183 H       
  32 H32            4.4284     3.5890     4.0675 H       
  33 H33            2.6007     4.5642     5.3970 H       
  34 H34            0.3855     4.9086     4.3807 H       
@<TRIPOS>BOND
   1    1    2 1
   2    1    5 2
   3    1   24 1
   4    2    3 2
   5    3    4 1
   6    3    7 1
   7    4    5 1
   8    5    6 1
   9    6   14 1
  10    6   25 1
  11    6   26 1
  12    7    8 1
  13    7   27 1
  14    8    9 ar
  15    8   13 ar
  16    9   10 ar
  17    9   28 1
  18   10   11 ar
  19   10   29 1
  20   11   12 ar
  21   11   22 1
  22   12   13 ar
  23   12   30 1
  24   13   31 1
  25   14   15 ar
  26   14   19 ar
  27   15   16 ar
  28   15   21 1
  29   16   17 ar
  30   16   32 1
  31   17   18 ar
  32   17   33 1
  33   18   19 ar
  34   18   34 1
  35   19   20 1
  36   22   23 3

#	End of record

