#	Name: ASD01913494
#	Creating user name:	WinNT
#	Creation time:	15. 06. 2019 20:01

#	Modifying user name:	WinNT
#	Modification time:	15. 06. 2019 20:01

#	Program:	/corina/corina34_cracker 3.40 0067  02.08.2006

@<TRIPOS>MOLECULE
ASD01913494
  36   38    0    0    0
SMALL
NO_CHARGES


@<TRIPOS>ATOM
   1 C1             0.3816     0.4634     1.3207 C.ar    
   2 C2            -0.0535    -0.0156     0.0892 C.ar    
   3 C3             0.7180     0.2263    -1.0386 C.ar    
   4 N4             1.8475     0.8998    -0.9490 N.ar    
   5 C5             2.2879     1.3673     0.2029 C.ar    
   6 C6             1.5747     1.1664     1.3696 C.ar    
   7 C7            -1.1453    -2.0625    -0.1103 C.ar    
   8 C8             0.0877    -2.7133    -0.1209 C.ar    
   9 C9             0.1228    -4.0882    -0.2206 C.ar    
  10 N10           -0.9916    -4.7904    -0.3060 N.ar    
  11 C11           -2.1832    -4.2116    -0.2994 C.ar    
  12 C12           -2.2996    -2.8321    -0.2014 C.ar    
  13 N13           -3.3314    -4.9957    -0.3919 N.am    
  14 C14           -3.2259    -6.3229    -0.6015 C.2     
  15 O15           -1.2172    -0.7109    -0.0079 O.3     
  16 C16           -4.4418    -7.1369    -0.8116 C.ar    
  17 O17           -2.1310    -6.8505    -0.6178 O.2     
  18 C18           -5.7008    -6.5321    -0.7932 C.ar    
  19 C19           -6.8378    -7.2909    -0.9893 C.ar    
  20 C20           -6.7392    -8.6508    -1.2052 C.ar    
  21 C21           -5.4859    -9.2689    -1.2266 C.ar    
  22 C22           -4.3342    -8.5083    -1.0342 C.ar    
  23 C23           -5.3852   -10.6797    -1.4507 C.1     
  24 N24           -5.3052   -11.7988    -1.6285 N.1     
  25 H25           -0.1986     0.2953     2.2160 H       
  26 H26            0.3898    -0.1414    -1.9996 H       
  27 H27            3.2185     1.9145     0.2349 H       
  28 H28            1.9428     1.5532     2.3084 H       
  29 H29            1.0048    -2.1471    -0.0522 H       
  30 H30            1.0752    -4.5974    -0.2292 H       
  31 H31           -3.2725    -2.3633    -0.1960 H       
  32 H32           -4.2065    -4.5864    -0.3054 H       
  33 H33           -5.7852    -5.4687    -0.6248 H       
  34 H34           -7.8088    -6.8183    -0.9733 H       
  35 H35           -7.6325    -9.2384    -1.3575 H       
  36 H36           -3.3632    -8.9807    -1.0502 H       
@<TRIPOS>BOND
   1    1    2 ar
   2    1    6 ar
   3    1   25 1
   4    2    3 ar
   5    2   15 1
   6    3    4 ar
   7    3   26 1
   8    4    5 ar
   9    5    6 ar
  10    5   27 1
  11    6   28 1
  12    7    8 ar
  13    7   12 ar
  14    7   15 1
  15    8    9 ar
  16    8   29 1
  17    9   10 ar
  18    9   30 1
  19   10   11 ar
  20   11   12 ar
  21   11   13 1
  22   12   31 1
  23   13   14 am
  24   13   32 1
  25   14   16 1
  26   14   17 2
  27   16   18 ar
  28   16   22 ar
  29   18   19 ar
  30   18   33 1
  31   19   20 ar
  32   19   34 1
  33   20   21 ar
  34   20   35 1
  35   21   22 ar
  36   21   23 1
  37   22   36 1
  38   23   24 3

#	End of record

