#	Name: ASD03331137
#	Creating user name:	WinNT
#	Creation time:	15. 06. 2019 20:38

#	Modifying user name:	WinNT
#	Modification time:	15. 06. 2019 20:38

#	Program:	/corina/corina34_cracker 3.40 0067  02.08.2006

@<TRIPOS>MOLECULE
ASD03331137
  21   22    0    0    0
SMALL
NO_CHARGES


@<TRIPOS>ATOM
   1 N1            -0.0164     1.3607     0.0095 N.pl3   
   2 C2             0.0021    -0.0041     0.0020 C.2     
   3 C3             1.2724    -0.4467    -0.0125 C.2     
   4 C4             2.1368     0.7321    -0.0144 C.ar    
   5 C5             3.5247     0.9161    -0.0270 C.ar    
   6 C6             4.0444     2.1738    -0.0256 C.ar    
   7 C7             3.1948     3.2931    -0.0116 C.ar    
   8 C8             1.8088     3.1247     0.0016 C.ar    
   9 C9             1.2737     1.8465    -0.0002 C.ar    
  10 C10            3.7669     4.6452    -0.0102 C.2     
  11 O11            4.9707     4.7944    -0.0212 O.2     
  12 C12           -1.2267     2.1861     0.0200 C.3     
  13 H13           -0.8740    -0.6356     0.0073 H       
  14 H14            1.5930    -1.4780    -0.0208 H       
  15 H15            4.1828     0.0599    -0.0375 H       
  16 H16            5.1154     2.3125    -0.0350 H       
  17 H17            1.1574     3.9860     0.0132 H       
  18 H18            3.1160     5.5069     0.0006 H       
  19 H19           -1.5216     2.3856     1.0502 H       
  20 H20           -1.0281     3.1287    -0.4901 H       
  21 H21           -2.0310     1.6582    -0.4924 H       
@<TRIPOS>BOND
   1    1    2 1
   2    1    9 1
   3    1   12 1
   4    2    3 2
   5    2   13 1
   6    3    4 1
   7    3   14 1
   8    4    5 ar
   9    4    9 ar
  10    5    6 ar
  11    5   15 1
  12    6    7 ar
  13    6   16 1
  14    7    8 ar
  15    7   10 1
  16    8    9 ar
  17    8   17 1
  18   10   11 2
  19   10   18 1
  20   12   19 1
  21   12   20 1
  22   12   21 1

#	End of record

