#	Name: ASD01813488
#	Creating user name:	WinNT
#	Creation time:	15. 06. 2019 19:30

#	Modifying user name:	WinNT
#	Modification time:	15. 06. 2019 19:30

#	Program:	/corina/corina34_cracker 3.40 0067  02.08.2006

@<TRIPOS>MOLECULE
ASD01813488
  46   50    0    0    0
SMALL
NO_CHARGES


@<TRIPOS>ATOM
   1 C1            -0.0168     1.3834    -0.0462 C.ar    
   2 C2             0.0020    -0.0038    -0.0533 C.ar    
   3 C3             1.1976    -0.6920    -0.0500 C.ar    
   4 C4             2.4035     0.0084    -0.0394 C.ar    
   5 C5             2.3796     1.4130    -0.0323 C.ar    
   6 C6             1.1627     2.0947    -0.0357 C.ar    
   7 N7             3.6056    -0.6668    -0.0350 N.pl3   
   8 C8             4.7891    -0.0410    -0.0236 C.2     
   9 C9             4.8932     1.3356    -0.0153 C.2     
  10 C10            3.6619     2.1417    -0.0212 C.2     
  11 O11            3.7002     3.3596    -0.0146 O.2     
  12 C12            6.2115     1.9851    -0.0018 C.2     
  13 O13            6.3001     3.3303     0.0062 O.3     
  14 O14            7.2221     1.3094     0.0022 O.2     
  15 C15            3.5871    -2.1316    -0.0427 C.3     
  16 C16            3.4445    -2.6248    -1.4595 C.ar    
  17 N17            2.2424    -2.7287    -1.9925 N.ar    
  18 C18            2.0629    -3.1537    -3.2262 C.ar    
  19 C19            3.1536    -3.5126    -4.0186 C.ar    
  20 C20            4.4420    -3.4131    -3.4808 C.ar    
  21 C21            4.5770    -2.9557    -2.1820 C.ar    
  22 C22            2.9517    -3.9907    -5.4034 C.2     
  23 F23            1.2003    -2.0430    -0.0565 F       
  24 C24            1.7623    -4.1152    -5.9904 C.2     
  25 C25            1.8087    -4.6035    -7.3559 C.ar    
  26 C26            3.1190    -4.8466    -7.7802 C.ar    
  27 S27            4.2471    -4.4597    -6.4873 S.3     
  28 C28            0.7454    -4.8470    -8.2543 C.ar    
  29 C29            0.9952    -5.3103    -9.5091 C.ar    
  30 C30            2.2974    -5.5512    -9.9272 C.ar    
  31 C31            3.3514    -5.3227    -9.0745 C.ar    
  32 H32           -0.9608     1.9082    -0.0535 H       
  33 H33           -0.9293    -0.5507    -0.0611 H       
  34 H34            1.1454     3.1745    -0.0306 H       
  35 H35            5.6925    -0.6328    -0.0203 H       
  36 H36            7.1887     3.7117     0.0150 H       
  37 H37            4.5175    -2.5090     0.3815 H       
  38 H38            2.7459    -2.4875     0.5522 H       
  39 H39            1.0629    -3.2252    -3.6276 H       
  40 H40            5.3088    -3.6829    -4.0659 H       
  41 H41            5.5556    -2.8656    -1.7341 H       
  42 H42            0.8369    -3.8723    -5.4894 H       
  43 H43           -0.2724    -4.6646    -7.9428 H       
  44 H44            0.1735    -5.4927   -10.1857 H       
  45 H45            2.4827    -5.9196   -10.9254 H       
  46 H46            4.3620    -5.5120    -9.4051 H       
@<TRIPOS>BOND
   1    1    2 ar
   2    1    6 ar
   3    1   32 1
   4    2    3 ar
   5    2   33 1
   6    3    4 ar
   7    3   23 1
   8    4    5 ar
   9    4    7 1
  10    5    6 ar
  11    5   10 1
  12    6   34 1
  13    7    8 1
  14    7   15 1
  15    8    9 2
  16    8   35 1
  17    9   10 1
  18    9   12 1
  19   10   11 2
  20   12   13 1
  21   12   14 2
  22   13   36 1
  23   15   16 1
  24   15   37 1
  25   15   38 1
  26   16   17 ar
  27   16   21 ar
  28   17   18 ar
  29   18   19 ar
  30   18   39 1
  31   19   20 ar
  32   19   22 1
  33   20   21 ar
  34   20   40 1
  35   21   41 1
  36   22   24 2
  37   22   27 1
  38   24   25 1
  39   24   42 1
  40   25   26 ar
  41   25   28 ar
  42   26   27 1
  43   26   31 ar
  44   28   29 ar
  45   28   43 1
  46   29   30 ar
  47   29   44 1
  48   30   31 ar
  49   30   45 1
  50   31   46 1

#	End of record

