#	Name: ASD04882428
#	Creating user name:	WinNT
#	Creation time:	15. 06. 2019 20:54

#	Modifying user name:	WinNT
#	Modification time:	15. 06. 2019 20:54

#	Program:	/corina/corina34_cracker 3.40 0067  02.08.2006

@<TRIPOS>MOLECULE
ASD04882428
  80   84    0    0    0
SMALL
NO_CHARGES


@<TRIPOS>ATOM
   1 C1            -0.3146     1.4409     0.0299 C.ar    
   2 C2            -0.3474     0.0438     0.0125 C.ar    
   3 C3            -1.5662    -0.6246    -0.0098 C.ar    
   4 C4            -2.7453     0.0870    -0.0152 C.ar    
   5 C5            -2.7197     1.4844     0.0017 C.ar    
   6 C6            -1.4958     2.1587     0.0308 C.ar    
   7 N7             0.8424    -0.6797     0.0169 N.3     
   8 C8             0.9227    -1.5533     1.1946 C.3     
   9 C9             0.9960    -1.4477    -1.2253 C.3     
  10 C10            2.3744    -2.1120    -1.2487 C.3     
  11 C11            2.5111    -3.0359    -0.0354 C.3     
  12 C12            2.2990    -2.2208     1.2434 C.3     
  13 C13           -3.9829     2.2464    -0.0051 C.2     
  14 O14           -3.9597     3.4621     0.0096 O.2     
  15 N15           -5.1627     1.5951    -0.0276 N.am    
  16 N16            0.9143     2.1132     0.0522 N.am    
  17 C17            0.9954     3.3519     0.5771 C.2     
  18 O18           -0.0110     3.9147     0.9668 O.2     
  19 C19            2.2959     4.0214     0.6786 C.2     
  20 O20            3.4822     3.5129     0.2858 O.3     
  21 C21            4.4513     4.4042     0.5316 C.2     
  22 C22            3.8989     5.5044     1.0889 C.2     
  23 C23            2.5179     5.2713     1.1819 C.2     
  24 N24            3.8501    -3.6300    -0.0207 N.pl3   
  25 C25           -6.4171     2.3519    -0.0343 C.3     
  26 C26           -7.5987     1.3802    -0.0607 C.3     
  27 C27           -8.9088     2.1705    -0.0677 C.3     
  28 N28          -10.0402     1.2402    -0.0929 N.am    
  29 C29          -10.6401     0.7458     1.0037 C.2     
  30 C30          -10.6682     0.7331    -1.3186 C.3     
  31 C31          -11.4831    -0.5046    -0.8825 C.3     
  32 C32          -11.7614    -0.1890     0.6066 C.3     
  33 O33          -10.3275     1.0100     2.1453 O.2     
  34 C34            5.9163     4.2117     0.2358 C.3     
  35 C35            3.9977    -5.0183     0.0211 C.ar    
  36 C36            5.0343    -2.7680    -0.0500 C.3     
  37 C37            2.8810    -5.8400    -0.0646 C.ar    
  38 C38            5.2621    -5.5806     0.1428 C.ar    
  39 C39            5.4045    -6.9536     0.1839 C.ar    
  40 C40            4.2902    -7.7686     0.1036 C.ar    
  41 C41            3.0305    -7.2123    -0.0229 C.ar    
  42 H42           -1.5884    -1.7043    -0.0232 H       
  43 H43           -3.6905    -0.4351    -0.0328 H       
  44 H44           -1.4729     3.2384     0.0439 H       
  45 H45            0.7743    -0.9605     2.0972 H       
  46 H46            0.1496    -2.3192     1.1321 H       
  47 H47            0.2226    -2.2141    -1.2765 H       
  48 H48            0.9008    -0.7783    -2.0802 H       
  49 H49            2.4821    -2.6946    -2.1637 H       
  50 H50            3.1485    -1.3455    -1.2115 H       
  51 H51            1.7618    -3.8255    -0.0925 H       
  52 H52            3.0718    -1.4560     1.3198 H       
  53 H53            2.3527    -2.8810     2.1089 H       
  54 H54           -5.1812     0.6254    -0.0393 H       
  55 H55            1.7068     1.6871    -0.3101 H       
  56 H56            4.4214     6.3967     1.4006 H       
  57 H57            1.7755     5.9470     1.5804 H       
  58 H58           -6.4740     2.9689     0.8624 H       
  59 H59           -6.4517     2.9900    -0.9173 H       
  60 H60           -7.5418     0.7632    -0.9574 H       
  61 H61           -7.5641     0.7421     0.8223 H       
  62 H62           -8.9657     2.7876     0.8290 H       
  63 H63           -8.9434     2.8087    -0.9507 H       
  64 H64          -11.3285     1.4886    -1.7445 H       
  65 H65           -9.9054     0.4466    -2.0426 H       
  66 H66          -12.4141    -0.5767    -1.4449 H       
  67 H67          -10.8944    -1.4160    -0.9872 H       
  68 H68          -11.7271    -1.1009     1.2027 H       
  69 H69          -12.7267     0.3047     0.7179 H       
  70 H70            6.0706     3.2301    -0.2124 H       
  71 H71            6.2518     4.9840    -0.4564 H       
  72 H72            6.4863     4.2817     1.1623 H       
  73 H73            5.3307    -2.5230     0.9699 H       
  74 H74            5.8507    -3.2890    -0.5503 H       
  75 H75            4.8027    -1.8508    -0.5913 H       
  76 H76            1.8969    -5.4062    -0.1634 H       
  77 H77            6.1329    -4.9447     0.2048 H       
  78 H78            6.3873    -7.3914     0.2785 H       
  79 H79            4.4045    -8.8421     0.1353 H       
  80 H80            2.1623    -7.8516    -0.0853 H       
@<TRIPOS>BOND
   1    1    2 ar
   2    1   16 1
   3    1    6 ar
   4    2    3 ar
   5    2    7 1
   6    3    4 ar
   7    3   42 1
   8    4    5 ar
   9    4   43 1
  10    5    6 ar
  11    5   13 1
  12    6   44 1
  13    7    8 1
  14    7    9 1
  15    8   12 1
  16    8   45 1
  17    8   46 1
  18    9   10 1
  19    9   47 1
  20    9   48 1
  21   10   11 1
  22   10   49 1
  23   10   50 1
  24   11   12 1
  25   11   24 1
  26   11   51 1
  27   12   52 1
  28   12   53 1
  29   13   14 2
  30   13   15 am
  31   15   25 1
  32   15   54 1
  33   16   17 am
  34   16   55 1
  35   17   18 2
  36   17   19 1
  37   19   20 1
  38   19   23 2
  39   20   21 1
  40   21   22 2
  41   21   34 1
  42   22   23 1
  43   22   56 1
  44   23   57 1
  45   24   35 1
  46   24   36 1
  47   25   26 1
  48   25   58 1
  49   25   59 1
  50   26   27 1
  51   26   60 1
  52   26   61 1
  53   27   28 1
  54   27   62 1
  55   27   63 1
  56   28   29 am
  57   28   30 1
  58   29   33 2
  59   29   32 1
  60   30   31 1
  61   30   64 1
  62   30   65 1
  63   31   32 1
  64   31   66 1
  65   31   67 1
  66   32   68 1
  67   32   69 1
  68   34   70 1
  69   34   71 1
  70   34   72 1
  71   35   37 ar
  72   35   38 ar
  73   36   73 1
  74   36   74 1
  75   36   75 1
  76   37   41 ar
  77   37   76 1
  78   38   39 ar
  79   38   77 1
  80   39   40 ar
  81   39   78 1
  82   40   41 ar
  83   40   79 1
  84   41   80 1

#	End of record

