#	Name: ASD03731439
#	Creating user name:	WinNT
#	Creation time:	15. 06. 2019 20:45

#	Modifying user name:	WinNT
#	Modification time:	15. 06. 2019 20:45

#	Program:	/corina/corina34_cracker 3.40 0067  02.08.2006

@<TRIPOS>MOLECULE
ASD03731439
  54   59    0    0    0
SMALL
NO_CHARGES


@<TRIPOS>ATOM
   1 C1            -0.0180     1.4734     0.0101 C.2     
   2 C2             0.0021    -0.0041     0.0020 C.ar    
   3 C3            -1.1937    -0.7325     0.0095 C.ar    
   4 C4            -1.1203    -2.1140     0.0009 C.ar    
   5 C5             0.1200    -2.7269    -0.0147 C.ar    
   6 N6             1.2313    -2.0163    -0.0210 N.ar    
   7 C7             1.2144    -0.6981    -0.0192 C.ar    
   8 O8             1.0264     2.0954     0.0035 O.2     
   9 N9            -1.1942     2.1313     0.0193 N.am    
  10 C10           -1.2141     3.5961     0.0274 C.3     
  11 C11           -2.6633     4.0865     0.0369 C.3     
  12 C12           -2.6841     5.6163     0.0453 C.3     
  13 O13           -8.8975     2.7099     2.1987 O.3     
  14 C14          -10.3146     2.7634     2.4479 C.3     
  15 O15          -10.5197     4.0877     2.9742 O.3     
  16 C16           -9.5162     4.8499     2.4482 C.ar    
  17 C17           -8.5185     4.0021     1.9724 C.ar    
  18 C18           -9.3713     6.2209     2.3342 C.ar    
  19 C19           -8.2318     6.7631     1.7474 C.ar    
  20 C20           -7.2384     5.9063     1.2833 C.ar    
  21 C21           -7.3826     4.5388     1.3900 C.ar    
  22 O22           -7.9029     8.0678     1.5241 O.3     
  23 C23           -6.1399     6.7790     0.7376 C.3     
  24 C24           -6.4842     8.1674     1.2937 C.3     
  25 N25           -4.0718     6.0858     0.0544 N.am    
  26 C26           -4.7791     6.3214     1.1775 C.2     
  27 C27           -6.0966     6.7717    -0.7617 C.ar    
  28 C28           -7.0122     7.0846    -1.7415 C.ar    
  29 C29           -6.6638     6.9752    -3.0759 C.ar    
  30 C30           -5.3943     6.5503    -3.4232 C.ar    
  31 C31           -4.4740     6.2347    -2.4455 C.ar    
  32 C32           -4.8158     6.3423    -1.0997 C.ar    
  33 O33           -4.3921     6.1898     2.3194 O.2     
  34 Cl34           2.7105     0.1823    -0.0355 Cl      
  35 H35           -2.1489    -0.2287     0.0221 H       
  36 H36           -2.0222    -2.7081     0.0067 H       
  37 H37            0.1793    -3.8053    -0.0214 H       
  38 H38           -2.0276     1.6349     0.0206 H       
  39 H39           -0.7010     3.9616     0.9169 H       
  40 H40           -0.7094     3.9713    -0.8630 H       
  41 H41           -3.1764     3.7210    -0.8527 H       
  42 H42           -3.1679     3.7114     0.9273 H       
  43 H43           -2.1710     5.9818     0.9349 H       
  44 H44           -2.1794     5.9914    -0.8451 H       
  45 H45          -10.8718     2.6292     1.5208 H       
  46 H46          -10.6030     2.0107     3.1817 H       
  47 H47          -10.1476     6.8749     2.7030 H       
  48 H48           -6.6074     3.8848     1.0187 H       
  49 H49           -6.2647     8.9435     0.5605 H       
  50 H50           -5.9526     8.3533     2.2269 H       
  51 H51           -8.0030     7.4161    -1.4680 H       
  52 H52           -7.3814     7.2214    -3.8446 H       
  53 H53           -5.1224     6.4648    -4.4649 H       
  54 H54           -3.4848     5.9031    -2.7246 H       
@<TRIPOS>BOND
   1    1    2 1
   2    1    8 2
   3    1    9 am
   4    2    3 ar
   5    2    7 ar
   6    3    4 ar
   7    3   35 1
   8    4    5 ar
   9    4   36 1
  10    5    6 ar
  11    5   37 1
  12    6    7 ar
  13    7   34 1
  14    9   10 1
  15    9   38 1
  16   10   11 1
  17   10   39 1
  18   10   40 1
  19   11   12 1
  20   11   41 1
  21   11   42 1
  22   12   25 1
  23   12   43 1
  24   12   44 1
  25   13   14 1
  26   13   17 1
  27   14   15 1
  28   14   45 1
  29   14   46 1
  30   15   16 1
  31   16   17 ar
  32   16   18 ar
  33   17   21 ar
  34   18   19 ar
  35   18   47 1
  36   19   20 ar
  37   19   22 1
  38   20   21 ar
  39   20   23 1
  40   21   48 1
  41   22   24 1
  42   23   24 1
  43   23   26 1
  44   23   27 1
  45   24   49 1
  46   24   50 1
  47   25   26 am
  48   25   32 1
  49   26   33 2
  50   27   28 ar
  51   27   32 ar
  52   28   29 ar
  53   28   51 1
  54   29   30 ar
  55   29   52 1
  56   30   31 ar
  57   30   53 1
  58   31   32 ar
  59   31   54 1

#	End of record

