#	Name: ASD08830191
#	Creating user name:	WinNT
#	Creation time:	15. 06. 2019 21:20

#	Modifying user name:	WinNT
#	Modification time:	15. 06. 2019 21:20

#	Program:	/corina/corina34_cracker 3.40 0067  02.08.2006

@<TRIPOS>MOLECULE
ASD08830191
  43   45    0    0    0
SMALL
NO_CHARGES


@<TRIPOS>ATOM
   1 C1            -0.0178     1.4645     0.0101 C.ar    
   2 C2             0.0021    -0.0041     0.0020 C.2     
   3 C3            -1.2926    -0.7753     0.0102 C.3     
   4 C4            -0.9927    -2.2755    -0.0007 C.3     
   5 N5            -2.2547    -3.0273     0.0073 N.3     
   6 O6             1.0606    -0.5962    -0.0113 O.2     
   7 C7            -1.2392     2.1495     0.0313 C.ar    
   8 C8            -2.0181    -4.4568    -0.2410 C.3     
   9 C9            -3.3490    -5.2097    -0.1649 C.3     
  10 O10           -4.2665    -4.6418    -1.1035 O.3     
  11 C11           -4.5205    -3.2506    -0.8906 C.3     
  12 C12           -3.2015    -2.4779    -0.9741 C.3     
  13 C13            1.1843     2.1824     0.0025 C.ar    
  14 C14            1.1588     3.5632     0.0100 C.ar    
  15 C15           -0.0604     4.2426     0.0257 C.ar    
  16 C16           -1.2567     3.5308     0.0385 C.ar    
  17 N17            2.3532     4.2991     0.0009 N.am    
  18 C18            2.3167     5.6100     0.3246 C.2     
  19 C19            1.0087     6.2452     0.7225 C.3     
  20 O20           -0.0669     5.6014     0.0347 O.3     
  21 O21            3.3319     6.2731     0.2956 O.2     
  22 O22           -2.4432     4.1955     0.0529 O.3     
  23 C23           -3.6314     3.4018     0.0655 C.3     
  24 H24           -1.8592    -0.5245     0.9070 H       
  25 H25           -1.8762    -0.5150    -0.8728 H       
  26 H26           -0.4261    -2.5263    -0.8975 H       
  27 H27           -0.4091    -2.5358     0.8824 H       
  28 H28           -2.1675     1.5977     0.0416 H       
  29 H29           -1.5824    -4.5869    -1.2316 H       
  30 H30           -1.3346    -4.8488     0.5123 H       
  31 H31           -3.1869    -6.2606    -0.4046 H       
  32 H32           -3.7584    -5.1242     0.8417 H       
  33 H33           -5.2057    -2.8846    -1.6552 H       
  34 H34           -4.9640    -3.1082     0.0948 H       
  35 H35           -3.3819    -1.4252    -0.7560 H       
  36 H36           -2.7847    -2.5763    -1.9764 H       
  37 H37            2.1284     1.6580    -0.0089 H       
  38 H38            3.1924     3.8730    -0.2338 H       
  39 H39            0.8664     6.1396     1.7981 H       
  40 H40            1.0248     7.3033     0.4613 H       
  41 H41           -3.6583     2.7738    -0.8250 H       
  42 H42           -3.6380     2.7716     0.9548 H       
  43 H43           -4.5043     4.0545     0.0762 H       
@<TRIPOS>BOND
   1    1    2 1
   2    1   13 ar
   3    1    7 ar
   4    2    3 1
   5    2    6 2
   6    3    4 1
   7    3   24 1
   8    3   25 1
   9    4    5 1
  10    4   26 1
  11    4   27 1
  12    5    8 1
  13    5   12 1
  14    7   16 ar
  15    7   28 1
  16    8    9 1
  17    8   29 1
  18    8   30 1
  19    9   10 1
  20    9   31 1
  21    9   32 1
  22   10   11 1
  23   11   12 1
  24   11   33 1
  25   11   34 1
  26   12   35 1
  27   12   36 1
  28   13   14 ar
  29   13   37 1
  30   14   15 ar
  31   14   17 1
  32   15   16 ar
  33   15   20 1
  34   16   22 1
  35   17   18 am
  36   17   38 1
  37   18   19 1
  38   18   21 2
  39   19   20 1
  40   19   39 1
  41   19   40 1
  42   22   23 1
  43   23   41 1
  44   23   42 1
  45   23   43 1

#	End of record

