#	Name: ASD09128002
#	Creating user name:	WinNT
#	Creation time:	15. 06. 2019 21:21

#	Modifying user name:	WinNT
#	Modification time:	15. 06. 2019 21:21

#	Program:	/corina/corina34_cracker 3.40 0067  02.08.2006

@<TRIPOS>MOLECULE
ASD09128002
  62   65    0    0    0
SMALL
NO_CHARGES


@<TRIPOS>ATOM
   1 C1             2.1685     1.0231     1.5675 C.2     
   2 C2             2.5166     0.2113     0.3465 C.3     
   3 C3             3.0495     1.1387    -0.7476 C.3     
   4 O4             1.0202     1.0977     1.9362 O.2     
   5 O5             3.1347     1.6587     2.2487 O.3     
   6 O6             1.3483    -0.4618    -0.1270 O.3     
   7 C7             1.5404    -1.5973    -0.8486 C.ar    
   8 C8             2.8250    -1.9940    -1.1913 C.ar    
   9 C9             3.0175    -3.1484    -1.9248 C.ar    
  10 C10            1.9312    -3.9084    -2.3180 C.ar    
  11 C11            0.6502    -3.5151    -1.9782 C.ar    
  12 C12            0.4527    -2.3646    -1.2389 C.ar    
  13 C13            4.4126    -3.5798    -2.2974 C.3     
  14 N14            5.4886    -6.2766    -0.0290 N.am    
  15 C15            4.8580    -5.8079    -1.1558 C.2     
  16 C16            4.9671    -4.4734    -1.2180 C.2     
  17 C17            5.7279    -4.0458    -0.0390 C.ar    
  18 C18            6.1535    -2.8058     0.4397 C.ar    
  19 C19            6.8731    -2.7390     1.6171 C.ar    
  20 C20            7.1728    -3.9009     2.3225 C.ar    
  21 C21            6.7575    -5.1298     1.8579 C.ar    
  22 C22            6.0320    -5.2168     0.6761 C.ar    
  23 O23            7.2904    -1.5337     2.0884 O.3     
  24 C24            8.0299    -1.5360     3.3112 C.3     
  25 F25            9.1910    -2.3002     3.1526 F       
  26 F26            8.3778    -0.2236     3.6482 F       
  27 F27            7.2448    -2.0866     4.3299 F       
  28 C28            4.1494    -6.6666    -2.1714 C.3     
  29 C29            5.5620    -7.5716     0.3374 C.2     
  30 C30            6.6276    -8.4329    -0.2078 C.ar    
  31 C31            6.6436    -9.7995     0.0865 C.ar    
  32 C32            7.6403   -10.6001    -0.4246 C.ar    
  33 C33            8.6297   -10.0513    -1.2323 C.ar    
  34 C34            8.6178    -8.6928    -1.5271 C.ar    
  35 C35            7.6213    -7.8862    -1.0252 C.ar    
  36 O36            4.7499    -8.0294     1.1173 O.2     
  37 O37            9.6103   -10.8439    -1.7341 O.3     
  38 C38           10.5954   -10.2153    -2.5566 C.3     
  39 H39            3.2798    -0.5231     0.6039 H       
  40 H40            2.2862     1.8730    -1.0049 H       
  41 H41            3.9406     1.6521    -0.3864 H       
  42 H42            3.3013     0.5515    -1.6307 H       
  43 H43            2.8628     2.1669     3.0252 H       
  44 H44            3.6737    -1.4004    -0.8851 H       
  45 H45            2.0837    -4.8105    -2.8918 H       
  46 H46           -0.1966    -4.1101    -2.2867 H       
  47 H47           -0.5479    -2.0603    -0.9696 H       
  48 H48            4.3846    -4.1244    -3.2412 H       
  49 H49            5.0484    -2.7010    -2.4038 H       
  50 H50            5.9220    -1.9038    -0.1073 H       
  51 H51            7.7362    -3.8387     3.2418 H       
  52 H52            6.9955    -6.0254     2.4126 H       
  53 H53            3.1030    -6.7774    -1.8868 H       
  54 H54            4.2112    -6.1952    -3.1523 H       
  55 H55            4.6214    -7.6484    -2.2098 H       
  56 H56            5.8755   -10.2265     0.7142 H       
  57 H57            7.6536   -11.6558    -0.1975 H       
  58 H58            9.3886    -8.2704    -2.1547 H       
  59 H59            7.6100    -6.8318    -1.2586 H       
  60 H60           11.3183   -10.9595    -2.8907 H       
  61 H61           10.1114    -9.7643    -3.4228 H       
  62 H62           11.1079    -9.4426    -1.9835 H       
@<TRIPOS>BOND
   1    1    2 1
   2    1    4 2
   3    1    5 1
   4    2    3 1
   5    2    6 1
   6    2   39 1
   7    3   40 1
   8    3   41 1
   9    3   42 1
  10    5   43 1
  11    6    7 1
  12    7    8 ar
  13    7   12 ar
  14    8    9 ar
  15    8   44 1
  16    9   10 ar
  17    9   13 1
  18   10   11 ar
  19   10   45 1
  20   11   12 ar
  21   11   46 1
  22   12   47 1
  23   13   16 1
  24   13   48 1
  25   13   49 1
  26   14   15 1
  27   14   22 1
  28   14   29 am
  29   15   16 2
  30   15   28 1
  31   16   17 1
  32   17   18 ar
  33   17   22 ar
  34   18   19 ar
  35   18   50 1
  36   19   20 ar
  37   19   23 1
  38   20   21 ar
  39   20   51 1
  40   21   22 ar
  41   21   52 1
  42   23   24 1
  43   24   25 1
  44   24   26 1
  45   24   27 1
  46   28   53 1
  47   28   54 1
  48   28   55 1
  49   29   30 1
  50   29   36 2
  51   30   31 ar
  52   30   35 ar
  53   31   32 ar
  54   31   56 1
  55   32   33 ar
  56   32   57 1
  57   33   34 ar
  58   33   37 1
  59   34   35 ar
  60   34   58 1
  61   35   59 1
  62   37   38 1
  63   38   60 1
  64   38   61 1
  65   38   62 1

#	End of record

