#	Name: ASD00170485
#	Creating user name:	WinNT
#	Creation time:	15. 06. 2019 18:32

#	Modifying user name:	WinNT
#	Modification time:	15. 06. 2019 18:32

#	Program:	/corina/corina34_cracker 3.40 0067  02.08.2006

@<TRIPOS>MOLECULE
ASD00170485
  47   50    0    0    0
SMALL
NO_CHARGES


@<TRIPOS>ATOM
   1 C1            -0.0167     1.3817     0.0096 C.ar    
   2 C2             0.0021    -0.0041     0.0020 C.ar    
   3 C3             1.2249    -0.6859    -0.0134 C.ar    
   4 C4             2.4113     0.0355    -0.0209 C.ar    
   5 C5             2.3880     1.4234    -0.0132 C.ar    
   6 C6             1.1646     2.0957     0.0022 C.ar    
   7 C7             3.8609    -0.3765    -0.0370 C.3     
   8 C8             4.6507     0.9142    -0.0376 C.2     
   9 C9             3.7896     1.9488    -0.0238 C.2     
  10 S10            6.3014     1.5331    -0.0506 S.3     
  11 C11            5.6851     3.1807    -0.0361 C.2     
  12 N12            4.3952     3.1568    -0.0231 N.2     
  13 N13            6.4642     4.3264    -0.0378 N.pl3   
  14 C14            1.2529    -2.1689    -0.0211 C.ar    
  15 C15            0.7455    -2.8704    -1.1132 C.ar    
  16 C16            0.7723    -4.2545    -1.1189 C.ar    
  17 C17            1.3050    -4.9449    -0.0356 C.ar    
  18 C18            1.8117    -4.2463     1.0550 C.ar    
  19 C19            1.7916    -2.8620     1.0612 C.ar    
  20 O20            1.3302    -6.3054    -0.0424 O.3     
  21 C21            2.4905    -6.9300    -0.5952 C.3     
  22 O22           -1.1647    -0.7002     0.0099 O.3     
  23 C23           -2.3741     0.0608     0.0261 C.3     
  24 O24            2.3318    -4.9232     2.1137 O.3     
  25 C25            2.8345    -4.1420     3.1995 C.3     
  26 O26            0.2768    -4.9394    -2.1842 O.3     
  27 C27           -0.2554    -4.1664    -3.2618 C.3     
  28 H28           -0.9609     1.9059     0.0170 H       
  29 H29            1.1424     3.1754     0.0082 H       
  30 H30            4.0961    -0.9617     0.8520 H       
  31 H31            4.0790    -0.9521    -0.9365 H       
  32 H32            7.4315     4.2551    -0.0477 H       
  33 H33            6.0423     5.1998    -0.0291 H       
  34 H34            0.3314    -2.3345    -1.9544 H       
  35 H35            2.1851    -2.3198     1.9082 H       
  36 H36            2.3817    -8.0131    -0.5390 H       
  37 H37            2.6034    -6.6297    -1.6369 H       
  38 H38            3.3715    -6.6236    -0.0312 H       
  39 H39           -2.3991     0.6845     0.9197 H       
  40 H40           -2.4168     0.6940    -0.8602 H       
  41 H41           -3.2289    -0.6154     0.0310 H       
  42 H42            3.2193    -4.8037     3.9756 H       
  43 H43            3.6367    -3.4965     2.8419 H       
  44 H44            2.0310    -3.5300     3.6094 H       
  45 H45           -1.0808    -3.5549    -2.8973 H       
  46 H46            0.5244    -3.5208    -3.6657 H       
  47 H47           -0.6159    -4.8340    -4.0445 H       
@<TRIPOS>BOND
   1    1    2 ar
   2    1    6 ar
   3    1   28 1
   4    2    3 ar
   5    2   22 1
   6    3    4 ar
   7    3   14 1
   8    4    5 ar
   9    4    7 1
  10    5    6 ar
  11    5    9 1
  12    6   29 1
  13    7    8 1
  14    7   30 1
  15    7   31 1
  16    8    9 2
  17    8   10 1
  18    9   12 1
  19   10   11 1
  20   11   12 2
  21   11   13 1
  22   13   32 1
  23   13   33 1
  24   14   15 ar
  25   14   19 ar
  26   15   16 ar
  27   15   34 1
  28   16   17 ar
  29   16   26 1
  30   17   18 ar
  31   17   20 1
  32   18   19 ar
  33   18   24 1
  34   19   35 1
  35   20   21 1
  36   21   36 1
  37   21   37 1
  38   21   38 1
  39   22   23 1
  40   23   39 1
  41   23   40 1
  42   23   41 1
  43   24   25 1
  44   25   42 1
  45   25   43 1
  46   25   44 1
  47   26   27 1
  48   27   45 1
  49   27   46 1
  50   27   47 1

#	End of record

