#	Name: ASD03240215
#	Creating user name:	WinNT
#	Creation time:	15. 06. 2019 20:34

#	Modifying user name:	WinNT
#	Modification time:	15. 06. 2019 20:34

#	Program:	/corina/corina34_cracker 3.40 0067  02.08.2006

@<TRIPOS>MOLECULE
ASD03240215
  68   71    0    0    0
SMALL
NO_CHARGES


@<TRIPOS>ATOM
   1 C1            -1.0295     0.2073    -1.8034 C.2     
   2 N2            -0.5951    -0.6907    -0.8573 N.pl3   
   3 O3            -4.2020     2.5616    -1.2026 O.2     
   4 C4            -3.9891     1.8460    -0.2468 C.2     
   5 C5            -2.8331     0.8796    -0.2718 C.3     
   6 N6            -2.1267     0.9960    -1.5500 N.pl3   
   7 N7            -0.3978     0.3147    -2.9384 N.2     
   8 N8            -4.7864     1.9151     0.8376 N.am    
   9 C9            -5.7868     2.8841     0.9069 C.ar    
  10 C10           -6.9797     2.6042     1.5659 C.ar    
  11 C11           -7.9695     3.5585     1.6362 C.ar    
  12 C12           -7.7746     4.8099     1.0450 C.ar    
  13 C13           -6.5749     5.0878     0.3842 C.ar    
  14 C14           -5.5874     4.1306     0.3218 C.ar    
  15 C15           -8.8335     5.8351     1.1179 C.2     
  16 N16           -8.6440     7.0413     0.5473 N.am    
  17 O17           -9.8770     5.5917     1.6929 O.2     
  18 C18           -9.6869     7.9763     0.5230 C.ar    
  19 C19           -9.4049     9.3333     0.6083 C.ar    
  20 C20          -11.0023     7.5462     0.4077 C.ar    
  21 C21          -12.0301     8.4676     0.3833 C.ar    
  22 C22          -11.7486     9.8246     0.4740 C.ar    
  23 C23          -10.4326    10.2548     0.5843 C.ar    
  24 N24          -12.7901    10.7583     0.4492 N.pl3   
  25 C25          -12.4930    12.1897     0.5449 C.3     
  26 C26          -14.1778    10.3047     0.3277 C.3     
  27 C27          -14.7534    10.0754     1.7014 C.ar    
  28 C28          -12.2913    12.7544    -0.8377 C.ar    
  29 C29          -15.3919    11.1068     2.3643 C.ar    
  30 C30          -15.9199    10.8964     3.6244 C.ar    
  31 C31          -15.8098     9.6544     4.2214 C.ar    
  32 C32          -15.1722     8.6228     3.5580 C.ar    
  33 C33          -14.6480     8.8320     2.2962 C.ar    
  34 C34          -13.3681    13.2607    -1.5414 C.ar    
  35 C35          -13.1831    13.7786    -2.8096 C.ar    
  36 C36          -11.9213    13.7906    -3.3740 C.ar    
  37 C37          -10.8443    13.2852    -2.6700 C.ar    
  38 C38          -11.0286    12.7712    -1.4000 C.ar    
  39 H39            0.1814    -1.2443    -1.0345 H       
  40 H40           -1.0652    -0.7706    -0.0126 H       
  41 H41           -2.1484     1.1110     0.5441 H       
  42 H42           -3.2072    -0.1375    -0.1548 H       
  43 H43           -2.4332     1.6296    -2.2175 H       
  44 H44            0.3787    -0.2389    -3.1156 H       
  45 H45           -4.6643     1.2908     1.5699 H       
  46 H46           -7.1296     1.6370     2.0226 H       
  47 H47           -8.8955     3.3404     2.1473 H       
  48 H48           -6.4211     6.0538    -0.0737 H       
  49 H49           -4.6600     4.3448    -0.1884 H       
  50 H50           -7.7855     7.2621     0.1534 H       
  51 H51           -8.3815     9.6679     0.6938 H       
  52 H52          -11.2212     6.4910     0.3369 H       
  53 H53          -13.0531     8.1332     0.2933 H       
  54 H54          -10.2135    11.3100     0.6549 H       
  55 H55          -13.3247    12.7019     1.0287 H       
  56 H56          -11.5862    12.3341     1.1322 H       
  57 H57          -14.7642    11.0639    -0.1899 H       
  58 H58          -14.2075     9.3740    -0.2388 H       
  59 H59          -15.4778    12.0771     1.8979 H       
  60 H60          -16.4180    11.7024     4.1426 H       
  61 H61          -16.2217     9.4902     5.2061 H       
  62 H62          -15.0859     7.6525     4.0246 H       
  63 H63          -14.1498     8.0260     1.7779 H       
  64 H64          -14.3539    13.2513    -1.1004 H       
  65 H65          -14.0245    14.1735    -3.3597 H       
  66 H66          -11.7768    14.1946    -4.3651 H       
  67 H67           -9.8586    13.2943    -3.1110 H       
  68 H68          -10.1872    12.3763    -0.8499 H       
@<TRIPOS>BOND
   1    1    2 1
   2    1    7 2
   3    1    6 1
   4    2   39 1
   5    2   40 1
   6    3    4 2
   7    4    5 1
   8    4    8 am
   9    5    6 1
  10    5   41 1
  11    5   42 1
  12    6   43 1
  13    7   44 1
  14    8    9 1
  15    8   45 1
  16    9   10 ar
  17    9   14 ar
  18   10   11 ar
  19   10   46 1
  20   11   12 ar
  21   11   47 1
  22   12   13 ar
  23   12   15 1
  24   13   14 ar
  25   13   48 1
  26   14   49 1
  27   15   16 am
  28   15   17 2
  29   16   18 1
  30   16   50 1
  31   18   19 ar
  32   18   20 ar
  33   19   23 ar
  34   19   51 1
  35   20   21 ar
  36   20   52 1
  37   21   22 ar
  38   21   53 1
  39   22   23 ar
  40   22   24 1
  41   23   54 1
  42   24   25 1
  43   24   26 1
  44   25   28 1
  45   25   55 1
  46   25   56 1
  47   26   27 1
  48   26   57 1
  49   26   58 1
  50   27   29 ar
  51   27   33 ar
  52   28   34 ar
  53   28   38 ar
  54   29   30 ar
  55   29   59 1
  56   30   31 ar
  57   30   60 1
  58   31   32 ar
  59   31   61 1
  60   32   33 ar
  61   32   62 1
  62   33   63 1
  63   34   35 ar
  64   34   64 1
  65   35   36 ar
  66   35   65 1
  67   36   37 ar
  68   36   66 1
  69   37   38 ar
  70   37   67 1
  71   38   68 1

#	End of record

