#	Name: ASD02500863
#	Creating user name:	WinNT
#	Creation time:	15. 06. 2019 20:23

#	Modifying user name:	WinNT
#	Modification time:	15. 06. 2019 20:23

#	Program:	/corina/corina34_cracker 3.40 0067  02.08.2006

@<TRIPOS>MOLECULE
ASD02500863
  41   43    0    0    0
SMALL
NO_CHARGES


@<TRIPOS>ATOM
   1 S1             0.1226     1.7741     0.8421 S.3     
   2 C2             0.1949     0.0102     0.9970 C.2     
   3 N3             1.4345    -0.3602     0.6566 N.am    
   4 C4             2.3141     0.5595     0.2965 C.2     
   5 C5             1.8085     1.9390     0.3122 C.2     
   6 O6            -0.7098    -0.7237     1.3467 O.2     
   7 C7             1.8152    -1.7747     0.6831 C.3     
   8 C8             1.5342    -2.3957    -0.6609 C.2     
   9 O9             1.8060    -3.6934    -0.8707 O.3     
  10 O10            1.0641    -1.7256    -1.5497 O.2     
  11 O11            3.4553     0.2842    -0.0234 O.2     
  12 C12            2.4758     3.0757    -0.0051 C.2     
  13 C13            1.7532     4.3534    -0.0886 C.ar    
  14 C14            2.4482     5.5618     0.0208 C.ar    
  15 C15            1.7598     6.7598    -0.0590 C.ar    
  16 C16            0.3839     6.7605    -0.2470 C.ar    
  17 C17           -0.3066     5.5665    -0.3552 C.ar    
  18 C18            0.3673     4.3658    -0.2838 C.ar    
  19 O19            2.4310     7.9368     0.0473 O.3     
  20 C20            1.6579     9.1351    -0.0441 C.3     
  21 C21            2.5653    10.3302     0.0947 C.ar    
  22 C22            3.9230    10.1495     0.2786 C.ar    
  23 C23            2.0401    11.6089     0.0325 C.ar    
  24 C24            2.8736    12.7054     0.1601 C.ar    
  25 C25            4.2308    12.5233     0.3497 C.ar    
  26 C26            4.7556    11.2459     0.4065 C.ar    
  27 Cl27           0.3357    11.8368    -0.2061 Cl      
  28 H28            2.8783    -1.8607     0.9079 H       
  29 H29            1.2386    -2.2918     1.4500 H       
  30 H30            1.6087    -4.0469    -1.7488 H       
  31 H31            3.5382     3.0427    -0.1964 H       
  32 H32            3.5182     5.5603     0.1674 H       
  33 H33           -0.1497     7.6974    -0.3088 H       
  34 H34           -1.3767     5.5751    -0.5007 H       
  35 H35           -0.1749     3.4357    -0.3690 H       
  36 H36            1.1557     9.1706    -1.0109 H       
  37 H37            0.9140     9.1492     0.7525 H       
  38 H38            4.3337     9.1516     0.3227 H       
  39 H39            2.4643    13.7036     0.1113 H       
  40 H40            4.8817    13.3793     0.4489 H       
  41 H41            5.8159    11.1040     0.5549 H       
@<TRIPOS>BOND
   1    1    2 1
   2    1    5 1
   3    2    3 am
   4    2    6 2
   5    3    4 am
   6    3    7 1
   7    4    5 1
   8    4   11 2
   9    5   12 2
  10    7    8 1
  11    7   28 1
  12    7   29 1
  13    8    9 1
  14    8   10 2
  15    9   30 1
  16   12   13 1
  17   12   31 1
  18   13   14 ar
  19   13   18 ar
  20   14   15 ar
  21   14   32 1
  22   15   16 ar
  23   15   19 1
  24   16   17 ar
  25   16   33 1
  26   17   18 ar
  27   17   34 1
  28   18   35 1
  29   19   20 1
  30   20   21 1
  31   20   36 1
  32   20   37 1
  33   21   22 ar
  34   21   23 ar
  35   22   26 ar
  36   22   38 1
  37   23   24 ar
  38   23   27 1
  39   24   25 ar
  40   24   39 1
  41   25   26 ar
  42   25   40 1
  43   26   41 1

#	End of record

