#	Name: ASD07300305
#	Creating user name:	WinNT
#	Creation time:	15. 06. 2019 21:09

#	Modifying user name:	WinNT
#	Modification time:	15. 06. 2019 21:09

#	Program:	/corina/corina34_cracker 3.40 0067  02.08.2006

@<TRIPOS>MOLECULE
ASD07300305
  41   45    0    0    0
SMALL
NO_CHARGES


@<TRIPOS>ATOM
   1 N1            -0.9198     0.8539     0.7527 N.am    
   2 C2            -0.7015    -0.4758     0.7515 C.2     
   3 N3             0.5704    -0.7267     0.3868 N.am    
   4 C4             1.2044     0.4784     0.1415 C.ar    
   5 N5             2.4274     0.8208    -0.2372 N.ar    
   6 C6             2.7479     2.0905    -0.3927 C.ar    
   7 N7             1.8839     3.0639    -0.1829 N.ar    
   8 C8             0.6401     2.8057     0.1979 C.ar    
   9 C9             0.2587     1.4868     0.3734 C.ar    
  10 O10           -1.5281    -1.3216     1.0374 O.2     
  11 C11            1.1547    -1.9972     0.2748 C.ar    
  12 C12            0.4055    -3.1329     0.5510 C.ar    
  13 C13            0.9809    -4.3831     0.4402 C.ar    
  14 C14            2.3077    -4.5045     0.0530 C.ar    
  15 C15            3.0570    -3.3698    -0.2226 C.ar    
  16 C16            2.4808    -2.1194    -0.1176 C.ar    
  17 O17            2.8738    -5.7358    -0.0560 O.3     
  18 C18            2.5637    -6.4838    -1.1396 C.2     
  19 N19            1.8324    -6.0804    -2.1459 N.2     
  20 C20            1.7213    -7.0804    -3.0592 C.ar    
  21 C21            2.4459    -8.1762    -2.5611 C.ar    
  22 N22            2.9725    -7.7686    -1.3474 N.pl3   
  23 C23            1.0706    -7.1888    -4.2904 C.ar    
  24 C24            1.1452    -8.3654    -5.0020 C.ar    
  25 C25            1.8618    -9.4440    -4.5057 C.ar    
  26 C26            2.5099    -9.3532    -3.2911 C.ar    
  27 C27            3.8108    -8.5691    -0.4515 C.3     
  28 H28           -1.7554     1.2932     0.9754 H       
  29 H29            3.7518     2.3413    -0.7020 H       
  30 H30           -0.0615     3.6090     0.3677 H       
  31 H31           -0.6272    -3.0384     0.8527 H       
  32 H32            0.3982    -5.2666     0.6553 H       
  33 H33            4.0898    -3.4648    -0.5236 H       
  34 H34            3.0628    -1.2364    -0.3365 H       
  35 H35            0.5105    -6.3529    -4.6827 H       
  36 H36            0.6416    -8.4489    -5.9538 H       
  37 H37            1.9124   -10.3614    -5.0735 H       
  38 H38            3.0666   -10.1967    -2.9103 H       
  39 H39            3.1775    -9.1130     0.2493 H       
  40 H40            4.3958    -9.2777    -1.0378 H       
  41 H41            4.4829    -7.9122     0.1007 H       
@<TRIPOS>BOND
   1    1    2 am
   2    1    9 1
   3    1   28 1
   4    2    3 am
   5    2   10 2
   6    3    4 1
   7    3   11 1
   8    4    5 ar
   9    4    9 ar
  10    5    6 ar
  11    6    7 ar
  12    6   29 1
  13    7    8 ar
  14    8    9 ar
  15    8   30 1
  16   11   12 ar
  17   11   16 ar
  18   12   13 ar
  19   12   31 1
  20   13   14 ar
  21   13   32 1
  22   14   15 ar
  23   14   17 1
  24   15   16 ar
  25   15   33 1
  26   16   34 1
  27   17   18 1
  28   18   19 2
  29   18   22 1
  30   19   20 1
  31   20   21 ar
  32   20   23 ar
  33   21   22 1
  34   21   26 ar
  35   22   27 1
  36   23   24 ar
  37   23   35 1
  38   24   25 ar
  39   24   36 1
  40   25   26 ar
  41   25   37 1
  42   26   38 1
  43   27   39 1
  44   27   40 1
  45   27   41 1

#	End of record

