#	Name: ASD01916921
#	Creating user name:	WinNT
#	Creation time:	15. 06. 2019 20:08

#	Modifying user name:	WinNT
#	Modification time:	15. 06. 2019 20:08

#	Program:	/corina/corina34_cracker 3.40 0067  02.08.2006

@<TRIPOS>MOLECULE
ASD01916921
  55   59    0    0    0
SMALL
NO_CHARGES


@<TRIPOS>ATOM
   1 C1            -0.0153     1.3848     0.1434 C.ar    
   2 C2             0.0042     0.0274     0.4083 C.ar    
   3 C3             1.2086    -0.6355     0.5608 C.ar    
   4 C4             2.3983     0.0553     0.4496 C.ar    
   5 C5             2.3846     1.4227     0.1828 C.ar    
   6 C6             1.1685     2.0853     0.0297 C.ar    
   7 C7             3.6607     2.1710     0.0627 C.2     
   8 N8             4.8842     1.6459     0.1892 N.2     
   9 N9             3.7717     3.4571    -0.1911 N.2     
  10 N10            5.1446     3.7508    -0.2190 N.pl3   
  11 C11            5.7900     2.5863     0.0238 C.2     
  12 C12            7.2569     2.4025     0.0915 C.ar    
  13 C13            5.7573     5.0584    -0.4664 C.3     
  14 C14            5.8914     5.8048     0.8359 C.2     
  15 O15            5.5124     5.2947     1.8690 O.2     
  16 N16            6.4323     7.0391     0.8526 N.am    
  17 C17            6.5725     7.7849     2.1125 C.3     
  18 C18            8.0195     8.2755     2.2294 C.3     
  19 N19            8.3775     9.0275     1.0193 N.3     
  20 C20            8.3323     8.1709    -0.1732 C.3     
  21 C21            6.9037     7.6735    -0.3877 C.3     
  22 C22            9.6192     9.6237     1.1550 C.ar    
  23 N23           10.1030    10.3451     0.1546 N.ar    
  24 N24           10.2933     9.4639     2.2844 N.ar    
  25 C25           11.2861    10.9285     0.2520 C.ar    
  26 C26           12.0204    10.7776     1.4179 C.ar    
  27 C27           11.4822    10.0205     2.4466 C.ar    
  28 C28            7.8118     1.1326    -0.0682 C.ar    
  29 C29            9.1802     0.9679    -0.0046 C.ar    
  30 C30           10.0016     2.0588     0.2171 C.ar    
  31 C31            9.4574     3.3207     0.3763 C.ar    
  32 C32            8.0908     3.4993     0.3095 C.ar    
  33 H33           -0.9584     1.8966     0.0208 H       
  34 H34           -0.9244    -0.5169     0.4968 H       
  35 H35            1.2181    -1.6955     0.7676 H       
  36 H36            3.3381    -0.4631     0.5696 H       
  37 H37            1.1522     3.1451    -0.1775 H       
  38 H38            6.7437     4.9196    -0.9088 H       
  39 H39            5.1297     5.6302    -1.1499 H       
  40 H40            5.8954     8.6391     2.1096 H       
  41 H41            6.3384     7.1314     2.9529 H       
  42 H42            8.1148     8.9226     3.1013 H       
  43 H43            8.6861     7.4198     2.3364 H       
  44 H44            8.6546     8.7421    -1.0438 H       
  45 H45            8.9946     7.3166    -0.0328 H       
  46 H46            6.8868     6.9482    -1.2012 H       
  47 H47            6.2555     8.5155    -0.6306 H       
  48 H48           11.6754    11.5151    -0.5670 H       
  49 H49           12.9892    11.2431     1.5239 H       
  50 H50           12.0286     9.8837     3.3681 H       
  51 H51            7.1715     0.2802    -0.2410 H       
  52 H52            9.6110    -0.0148    -0.1277 H       
  53 H53           11.0721     1.9247     0.2665 H       
  54 H54           10.1038     4.1684     0.5491 H       
  55 H55            7.6671     4.4849     0.4339 H       
@<TRIPOS>BOND
   1    1    2 ar
   2    1    6 ar
   3    1   33 1
   4    2    3 ar
   5    2   34 1
   6    3    4 ar
   7    3   35 1
   8    4    5 ar
   9    4   36 1
  10    5    6 ar
  11    5    7 1
  12    6   37 1
  13    7    8 1
  14    7    9 2
  15    8   11 2
  16    9   10 1
  17   10   11 1
  18   10   13 1
  19   11   12 1
  20   12   28 ar
  21   12   32 ar
  22   13   14 1
  23   13   38 1
  24   13   39 1
  25   14   15 2
  26   14   16 am
  27   16   17 1
  28   16   21 1
  29   17   18 1
  30   17   40 1
  31   17   41 1
  32   18   19 1
  33   18   42 1
  34   18   43 1
  35   19   20 1
  36   19   22 1
  37   20   21 1
  38   20   44 1
  39   20   45 1
  40   21   46 1
  41   21   47 1
  42   22   23 ar
  43   22   24 ar
  44   23   25 ar
  45   24   27 ar
  46   25   26 ar
  47   25   48 1
  48   26   27 ar
  49   26   49 1
  50   27   50 1
  51   28   29 ar
  52   28   51 1
  53   29   30 ar
  54   29   52 1
  55   30   31 ar
  56   30   53 1
  57   31   32 ar
  58   31   54 1
  59   32   55 1

#	End of record

