#	Name: ASD01140144
#	Creating user name:	WinNT
#	Creation time:	15. 06. 2019 19:00

#	Modifying user name:	WinNT
#	Modification time:	15. 06. 2019 19:00

#	Program:	/corina/corina34_cracker 3.40 0067  02.08.2006

@<TRIPOS>MOLECULE
ASD01140144
  46   49    0    0    0
SMALL
NO_CHARGES


@<TRIPOS>ATOM
   1 C1            -0.0170     1.4028     0.0098 C.ar    
   2 C2             0.0021    -0.0041     0.0020 C.ar    
   3 C3             1.2248    -0.6759    -0.0133 C.ar    
   4 C4             2.4043     0.0398    -0.0207 C.ar    
   5 C5             2.3840     1.4244    -0.0126 C.ar    
   6 C6             1.1835     2.1064     0.0021 C.ar    
   7 C7            -1.3078     2.1308     0.0198 C.ar    
   8 C8            -1.5313     3.1441     0.9500 C.ar    
   9 C9            -2.7407     3.8209     0.9539 C.ar    
  10 C10           -3.7259     3.4883     0.0321 C.ar    
  11 C11           -3.5042     2.4830    -0.8899 C.ar    
  12 C12           -2.3001     1.8078    -0.9051 C.ar    
  13 C13           -1.2254    -0.7415     0.0103 C.1     
  14 N14           -2.1992    -1.3266     0.0168 N.1     
  15 C15           -2.7721     4.7630     3.2337 C.2     
  16 N16           -3.0866     5.8928     3.7971 N.2     
  17 C17           -3.5083     6.7734     2.8530 C.ar    
  18 C18           -3.4400     6.1118     1.6149 C.ar    
  19 N19           -2.9703     4.8403     1.8877 N.pl3   
  20 C20           -3.9540     8.0966     2.9016 C.ar    
  21 C21           -4.3207     8.7374     1.7400 C.ar    
  22 C22           -4.2519     8.0796     0.5203 C.ar    
  23 C23           -3.8145     6.7736     0.4545 C.ar    
  24 C24           -4.8014    10.1647     1.7934 C.3     
  25 C25           -4.4421    10.8730     0.4857 C.3     
  26 C26           -6.3193    10.1849     1.9840 C.3     
  27 O27           -4.1749    10.8376     2.8873 O.3     
  28 H28            1.2480    -1.7557    -0.0189 H       
  29 H29            3.3492    -0.4830    -0.0325 H       
  30 H30            3.3134     1.9745    -0.0178 H       
  31 H31            1.1763     3.1864     0.0076 H       
  32 H32           -0.7645     3.4010     1.6659 H       
  33 H33           -4.6678     4.0166     0.0365 H       
  34 H34           -4.2735     2.2280    -1.6037 H       
  35 H35           -2.1283     1.0263    -1.6305 H       
  36 H36           -2.4033     3.8926     3.7559 H       
  37 H37           -4.0109     8.6148     3.8475 H       
  38 H38           -4.5433     8.5938    -0.3836 H       
  39 H39           -3.7629     6.2673    -0.4981 H       
  40 H40           -4.9199    10.3597    -0.3487 H       
  41 H41           -4.7897    11.9054     0.5243 H       
  42 H42           -3.3607    10.8587     0.3499 H       
  43 H43           -6.5753     9.6802     2.9156 H       
  44 H44           -6.6669    11.2172     2.0226 H       
  45 H45           -6.7971     9.6716     1.1496 H       
  46 H46           -4.3594    10.4420     3.7502 H       
@<TRIPOS>BOND
   1    1    2 ar
   2    1    6 ar
   3    1    7 1
   4    2    3 ar
   5    2   13 1
   6    3    4 ar
   7    3   28 1
   8    4    5 ar
   9    4   29 1
  10    5    6 ar
  11    5   30 1
  12    6   31 1
  13    7    8 ar
  14    7   12 ar
  15    8    9 ar
  16    8   32 1
  17    9   10 ar
  18    9   19 1
  19   10   11 ar
  20   10   33 1
  21   11   12 ar
  22   11   34 1
  23   12   35 1
  24   13   14 3
  25   15   16 2
  26   15   19 1
  27   15   36 1
  28   16   17 1
  29   17   18 ar
  30   17   20 ar
  31   18   19 1
  32   18   23 ar
  33   20   21 ar
  34   20   37 1
  35   21   22 ar
  36   21   24 1
  37   22   23 ar
  38   22   38 1
  39   23   39 1
  40   24   25 1
  41   24   26 1
  42   24   27 1
  43   25   40 1
  44   25   41 1
  45   25   42 1
  46   26   43 1
  47   26   44 1
  48   26   45 1
  49   27   46 1

#	End of record

