#	Name: ASD03490050
#	Creating user name:	WinNT
#	Creation time:	15. 06. 2019 20:42

#	Modifying user name:	WinNT
#	Modification time:	15. 06. 2019 20:42

#	Program:	/corina/corina34_cracker 3.40 0067  02.08.2006

@<TRIPOS>MOLECULE
ASD03490050
  68   70    0    0    0
SMALL
NO_CHARGES


@<TRIPOS>ATOM
   1 O1            -0.1097     1.9923     0.3391 O.3     
   2 C2            -0.4213     0.7028     0.5438 C.2     
   3 C3            -1.8233     0.2158     0.2827 C.3     
   4 O4             0.4223    -0.0674     0.9375 O.2     
   5 O5            -1.9348    -1.1518     0.6817 O.3     
   6 C6            -2.8156     1.0636     1.0828 C.3     
   7 O7            -2.1159     0.3309    -1.1113 O.3     
   8 C8            -3.4189    -0.1304    -1.4741 C.3     
   9 C9            -4.4753     0.7037    -0.7447 C.3     
  10 C10           -4.2414     0.6019     0.7659 C.3     
  11 C11           -3.6089     0.0140    -2.9854 C.3     
  12 C12           -2.6642    -0.9454    -3.7121 C.3     
  13 C13           -2.9408    -0.8919    -5.2159 C.3     
  14 O14           -2.1411    -1.8708    -5.8825 O.3     
  15 O15           -1.3106    -0.5611    -3.4628 O.3     
  16 C16           -4.3641     2.1656    -1.1821 C.3     
  17 O17           -5.2736     2.9615    -0.4197 O.3     
  18 O18           -4.4093    -0.7538     1.1854 O.3     
  19 P19           -2.1764    -2.0944    -7.4765 P.3     
  20 O20           -3.5688    -2.3506    -7.9079 O.2     
  21 O21           -1.6193    -0.7771    -8.2157 O.3     
  22 C22           -1.7146    -0.8215    -9.5706 C.ar    
  23 C23           -2.8920    -0.4398   -10.1972 C.ar    
  24 C24           -2.9864    -0.4859   -11.5747 C.ar    
  25 C25           -1.9087    -0.9121   -12.3287 C.ar    
  26 C26           -0.7343    -1.2935   -11.7066 C.ar    
  27 C27           -0.6328    -1.2434   -10.3298 C.ar    
  28 N28           -4.6934     2.2759    -2.6054 N.am    
  29 O29           -3.0717     3.7534    -2.9356 O.2     
  30 C30           -3.9833     3.1016    -3.3994 C.2     
  31 C31           -4.3221     3.2151    -4.8634 C.3     
  32 O32           -1.2543    -3.3566    -7.8619 O.3     
  33 C33           -1.7102    -4.5422    -7.3788 C.ar    
  34 C34           -2.5023    -5.3580    -8.1737 C.ar    
  35 C35           -2.9645    -6.5627    -7.6803 C.ar    
  36 C36           -2.6383    -6.9557    -6.3955 C.ar    
  37 C37           -1.8494    -6.1443    -5.6011 C.ar    
  38 C38           -1.3796    -4.9415    -6.0920 C.ar    
  39 H39            0.8023     2.2577     0.5205 H       
  40 H40           -1.3340    -1.7481     0.2142 H       
  41 H41           -2.6219     0.9422     2.1486 H       
  42 H42           -2.7029     2.1124     0.8083 H       
  43 H43           -3.5250    -1.1781    -1.1927 H       
  44 H44           -5.4686     0.3250    -0.9858 H       
  45 H45           -4.9554     1.2379     1.2891 H       
  46 H46           -4.6400    -0.2242    -3.2463 H       
  47 H47           -3.3860     1.0385    -3.2833 H       
  48 H48           -2.8266    -1.9601    -3.3486 H       
  49 H49           -3.9953    -1.0985    -5.3990 H       
  50 H50           -2.6935     0.0993    -5.5959 H       
  51 H51           -1.0943     0.3330    -3.7611 H       
  52 H52           -3.3460     2.5179    -1.0164 H       
  53 H53           -6.2049     2.7544    -0.5774 H       
  54 H54           -4.2755    -0.8917     2.1331 H       
  55 H55           -3.7342    -0.1071    -9.6086 H       
  56 H56           -3.9029    -0.1891   -12.0629 H       
  57 H57           -1.9844    -0.9474   -13.4055 H       
  58 H58            0.1059    -1.6267   -12.2978 H       
  59 H59            0.2864    -1.5368    -9.8446 H       
  60 H60           -5.4225     1.7546    -2.9763 H       
  61 H61           -5.0574     4.0069    -5.0059 H       
  62 H62           -3.4200     3.4511    -5.4279 H       
  63 H63           -4.7339     2.2692    -5.2154 H       
  64 H64           -2.7577    -5.0512    -9.1773 H       
  65 H65           -3.5815    -7.1979    -8.2986 H       
  66 H66           -3.0006    -7.8979    -6.0115 H       
  67 H67           -1.5965    -6.4532    -4.5976 H       
  68 H68           -0.7594    -4.3103    -5.4729 H       
@<TRIPOS>BOND
   1    1    2 1
   2    1   39 1
   3    2    3 1
   4    2    4 2
   5    3    5 1
   6    3    6 1
   7    3    7 1
   8    5   40 1
   9    6   10 1
  10    6   41 1
  11    6   42 1
  12    7    8 1
  13    8    9 1
  14    8   11 1
  15    8   43 1
  16    9   10 1
  17    9   16 1
  18    9   44 1
  19   10   18 1
  20   10   45 1
  21   11   12 1
  22   11   46 1
  23   11   47 1
  24   12   13 1
  25   12   15 1
  26   12   48 1
  27   13   14 1
  28   13   49 1
  29   13   50 1
  30   14   19 1
  31   15   51 1
  32   16   17 1
  33   16   28 1
  34   16   52 1
  35   17   53 1
  36   18   54 1
  37   19   20 2
  38   19   21 1
  39   19   32 1
  40   21   22 1
  41   22   23 ar
  42   22   27 ar
  43   23   24 ar
  44   23   55 1
  45   24   25 ar
  46   24   56 1
  47   25   26 ar
  48   25   57 1
  49   26   27 ar
  50   26   58 1
  51   27   59 1
  52   28   30 am
  53   28   60 1
  54   29   30 2
  55   30   31 1
  56   31   61 1
  57   31   62 1
  58   31   63 1
  59   32   33 1
  60   33   34 ar
  61   33   38 ar
  62   34   35 ar
  63   34   64 1
  64   35   36 ar
  65   35   65 1
  66   36   37 ar
  67   36   66 1
  68   37   38 ar
  69   37   67 1
  70   38   68 1

#	End of record

