#	Name: ASD01148370
#	Creating user name:	WinNT
#	Creation time:	15. 06. 2019 19:02

#	Modifying user name:	WinNT
#	Modification time:	15. 06. 2019 19:02

#	Program:	/corina/corina34_cracker 3.40 0067  02.08.2006

@<TRIPOS>MOLECULE
ASD01148370
  49   51    0    0    0
SMALL
NO_CHARGES


@<TRIPOS>ATOM
   1 C1            -0.4098     1.8312    -0.0441 C.ar    
   2 C2            -0.4708     0.4517     0.0159 C.ar    
   3 C3             0.6939    -0.2889     0.0951 C.ar    
   4 C4             1.9194     0.3501     0.1137 C.ar    
   5 C5             1.9804     1.7299     0.0527 C.ar    
   6 C6             0.8160     2.4704    -0.0250 C.ar    
   7 C7             3.3165     2.4267     0.0740 C.3     
   8 O8             4.3315     1.6159    -0.5522 O.3     
   9 C9             3.3041     3.6762    -0.8386 C.3     
  10 C10            3.8466     3.1341    -2.1473 C.2     
  11 N11            4.3976     1.9902    -1.9140 N.2     
  12 C12            3.7593     3.8000    -3.4617 C.ar    
  13 C13            4.3038     3.1867    -4.5932 C.ar    
  14 C14            3.1274     5.0408    -3.5756 C.ar    
  15 C15            3.0461     5.6619    -4.8015 C.ar    
  16 C16            3.5955     5.0513    -5.9317 C.ar    
  17 C17            4.2225     3.8075    -5.8187 C.ar    
  18 C18            3.5082     5.7177    -7.2470 C.2     
  19 O19            4.0808     5.2428    -8.2079 O.2     
  20 N20            2.7936     6.8525    -7.3815 N.am    
  21 C21            4.8156     3.1492    -7.0377 C.3     
  22 C22            3.7157     2.7959     1.5041 C.3     
  23 F23            3.7857     1.6359     2.2830 F       
  24 F24            4.9649     3.4255     1.4918 F       
  25 F25            2.7613     3.6640     2.0452 F       
  26 C26            2.7140     7.4606    -8.5816 C.2     
  27 O27            2.0004     8.5939    -8.7159 O.3     
  28 C28            1.9587     9.1940   -10.0374 C.3     
  29 O29            3.2863     6.9859    -9.5421 O.2     
  30 C30            0.6273    -1.7930     0.1616 C.3     
  31 F31           -0.7100    -2.2025     0.1286 F       
  32 F32            1.3093    -2.3388    -0.9312 F       
  33 F33            1.2209    -2.2340     1.3492 F       
  34 H34           -1.3194     2.4096    -0.1105 H       
  35 H35           -1.4283    -0.0476     0.0014 H       
  36 H36            2.8292    -0.2285     0.1763 H       
  37 H37            0.8637     3.5483    -0.0723 H       
  38 H38            2.2889     4.0519    -0.9665 H       
  39 H39            3.9578     4.4525    -0.4407 H       
  40 H40            4.7888     2.2256    -4.5059 H       
  41 H41            2.7024     5.5125    -2.7020 H       
  42 H42            2.5573     6.6209    -4.8896 H       
  43 H43            2.3366     7.2316    -6.6144 H       
  44 H44            5.8129     3.5504    -7.2184 H       
  45 H45            4.8808     2.0735    -6.8743 H       
  46 H46            4.1821     3.3476    -7.9023 H       
  47 H47            2.9708     9.4459   -10.3542 H       
  48 H48            1.5222     8.4877   -10.7436 H       
  49 H49            1.3518    10.0989   -10.0066 H       
@<TRIPOS>BOND
   1    1    2 ar
   2    1    6 ar
   3    1   34 1
   4    2    3 ar
   5    2   35 1
   6    3    4 ar
   7    3   30 1
   8    4    5 ar
   9    4   36 1
  10    5    6 ar
  11    5    7 1
  12    6   37 1
  13    7    8 1
  14    7    9 1
  15    7   22 1
  16    8   11 1
  17    9   10 1
  18    9   38 1
  19    9   39 1
  20   10   11 2
  21   10   12 1
  22   12   13 ar
  23   12   14 ar
  24   13   17 ar
  25   13   40 1
  26   14   15 ar
  27   14   41 1
  28   15   16 ar
  29   15   42 1
  30   16   17 ar
  31   16   18 1
  32   17   21 1
  33   18   19 2
  34   18   20 am
  35   20   26 am
  36   20   43 1
  37   21   44 1
  38   21   45 1
  39   21   46 1
  40   22   23 1
  41   22   24 1
  42   22   25 1
  43   26   27 1
  44   26   29 2
  45   27   28 1
  46   28   47 1
  47   28   48 1
  48   28   49 1
  49   30   31 1
  50   30   32 1
  51   30   33 1

#	End of record

