#	Name: ASD03091159
#	Creating user name:	WinNT
#	Creation time:	15. 06. 2019 20:30

#	Modifying user name:	WinNT
#	Modification time:	15. 06. 2019 20:30

#	Program:	/corina/corina34_cracker 3.40 0067  02.08.2006

@<TRIPOS>MOLECULE
ASD03091159
  22   22    0    0    0
SMALL
NO_CHARGES


@<TRIPOS>ATOM
   1 C1             0.1196     1.3610     0.7743 C.2     
   2 C2             0.0689    -0.0570     0.3739 C.ar    
   3 C3             1.2188    -0.6924    -0.1190 C.ar    
   4 C4             1.1613    -2.0285    -0.4932 C.ar    
   5 C5            -0.0224    -2.7288    -0.3811 C.ar    
   6 C6            -1.1645    -2.1048     0.1063 C.ar    
   7 C7            -1.1229    -0.7772     0.4886 C.ar    
   8 O8             1.1809     1.9547     0.7764 O.2     
   9 N9            -1.0111     2.0008     1.1328 N.am    
  10 C10           -0.9608     3.4099     1.5307 C.3     
  11 O11           -2.3259    -2.8045     0.2126 O.3     
  12 N12            2.4119     0.0137    -0.2329 N.pl3   
  13 H13            2.0446    -2.5204    -0.8729 H       
  14 H14           -0.0617    -3.7675    -0.6743 H       
  15 H15           -2.0110    -0.2962     0.8713 H       
  16 H16           -1.8583     1.5284     1.1273 H       
  17 H17           -0.3099     3.5194     2.3982 H       
  18 H18           -0.5707     4.0066     0.7061 H       
  19 H19           -1.9643     3.7520     1.7838 H       
  20 H20           -2.4422    -3.2467     1.0647 H       
  21 H21            2.3983     0.9811    -0.3017 H       
  22 H22            3.2575    -0.4615    -0.2434 H       
@<TRIPOS>BOND
   1    1    2 1
   2    1    8 2
   3    1    9 am
   4    2    3 ar
   5    2    7 ar
   6    3    4 ar
   7    3   12 1
   8    4    5 ar
   9    4   13 1
  10    5    6 ar
  11    5   14 1
  12    6    7 ar
  13    6   11 1
  14    7   15 1
  15    9   10 1
  16    9   16 1
  17   10   17 1
  18   10   18 1
  19   10   19 1
  20   11   20 1
  21   12   21 1
  22   12   22 1

#	End of record

