#	Name: ASD03930076
#	Creating user name:	WinNT
#	Creation time:	15. 06. 2019 20:47

#	Modifying user name:	WinNT
#	Modification time:	15. 06. 2019 20:47

#	Program:	/corina/corina34_cracker 3.40 0067  02.08.2006

@<TRIPOS>MOLECULE
ASD03930076
  30   32    0    0    0
SMALL
NO_CHARGES


@<TRIPOS>ATOM
   1 C1             2.2367     1.4046    -0.5966 C.ar    
   2 C2             2.2797     0.0435    -0.5914 C.ar    
   3 C3             1.2639    -0.6883     0.0356 C.ar    
   4 C4             0.1998    -0.0110     0.6594 C.ar    
   5 C5             0.1606     1.3725     0.6513 C.ar    
   6 C6             1.1798     2.0858     0.0228 C.ar    
   7 N7             1.0379    -2.0145     0.2016 N.2     
   8 C8            -0.0662    -2.1916     0.8690 C.2     
   9 N9            -0.6245    -0.9920     1.1770 N.pl3   
  10 C10            1.1463     3.5615     0.0097 C.2     
  11 O11            2.1826     4.1937     0.0776 O.2     
  12 N12           -0.0331     4.2080    -0.0773 N.am    
  13 C13           -1.2917     3.4789    -0.2900 C.3     
  14 C14           -2.1219     4.2133    -1.3055 C.2     
  15 C15           -0.1148     5.6742     0.0429 C.3     
  16 C16           -0.6744     6.2233    -1.2721 C.3     
  17 C17           -1.8503     5.4071    -1.7261 C.2     
  18 H18            3.0254     1.9637    -1.0780 H       
  19 H19            3.0981    -0.4722    -1.0717 H       
  20 H20           -0.6546     1.8960     1.1286 H       
  21 H21           -0.4785    -3.1528     1.1383 H       
  22 H22           -1.4481    -0.8503     1.6693 H       
  23 H23           -1.0740     2.4751    -0.6547 H       
  24 H24           -1.8391     3.4151     0.6504 H       
  25 H25           -2.9932     3.7171    -1.7068 H       
  26 H26           -0.7781     5.9404     0.8658 H       
  27 H27            0.8787     6.0856     0.2213 H       
  28 H28           -0.9819     7.2591    -1.1285 H       
  29 H29            0.0999     6.1830    -2.0382 H       
  30 H30           -2.5220     5.8515    -2.4457 H       
@<TRIPOS>BOND
   1    1    2 ar
   2    1    6 ar
   3    1   18 1
   4    2    3 ar
   5    2   19 1
   6    3    4 ar
   7    3    7 1
   8    4    5 ar
   9    4    9 1
  10    5    6 ar
  11    5   20 1
  12    6   10 1
  13    7    8 2
  14    8    9 1
  15    8   21 1
  16    9   22 1
  17   10   11 2
  18   10   12 am
  19   12   13 1
  20   12   15 1
  21   13   14 1
  22   13   23 1
  23   13   24 1
  24   14   17 2
  25   14   25 1
  26   15   16 1
  27   15   26 1
  28   15   27 1
  29   16   17 1
  30   16   28 1
  31   16   29 1
  32   17   30 1

#	End of record

