#	Name: ASD03430979
#	Creating user name:	WinNT
#	Creation time:	15. 06. 2019 20:41

#	Modifying user name:	WinNT
#	Modification time:	15. 06. 2019 20:41

#	Program:	/corina/corina34_cracker 3.40 0067  02.08.2006

@<TRIPOS>MOLECULE
ASD03430979
  46   50    0    0    0
SMALL
NO_CHARGES


@<TRIPOS>ATOM
   1 O1            -0.0164     1.3574     0.0095 O.3     
   2 C2             0.0021    -0.0041     0.0020 C.ar    
   3 C3             1.1486    -0.6999    -0.3637 C.ar    
   4 O4             2.2812    -0.0336    -0.7204 O.3     
   5 C5             2.1347     1.3485    -1.0633 C.3     
   6 C6             1.2542     2.0175     0.0009 C.3     
   7 O7            -0.2025    -4.1355     0.0763 O.3     
   8 C8            -1.6183    -4.4006     0.0899 C.3     
   9 C9            -2.1937    -3.1065     0.6807 C.3     
  10 C10           -1.1386    -2.0820     0.3589 C.ar    
  11 C11            0.0050    -2.7897     0.0014 C.ar    
  12 C12           -1.1395    -0.7032     0.3622 C.ar    
  13 C13            1.1474    -2.0846    -0.3640 C.ar    
  14 N14           -3.7479    -2.9724     2.3513 N.am    
  15 C15           -2.4384    -3.2264     2.1575 C.2     
  16 C16           -3.5251    -2.7593     0.0839 C.ar    
  17 C17           -3.9590    -2.5228    -1.2015 C.ar    
  18 C18           -5.2867    -2.2147    -1.4390 C.ar    
  19 C19           -6.1767    -2.1448    -0.3828 C.ar    
  20 C20           -5.7474    -2.3822     0.9063 C.ar    
  21 C21           -4.4129    -2.6942     1.1547 C.ar    
  22 O22           -1.6186    -3.4990     3.0087 O.2     
  23 C23           -4.3982    -2.9870     3.6640 C.3     
  24 C24           -4.3302    -1.6104     4.2735 C.2     
  25 C25           -4.9314    -1.3574     5.6320 C.3     
  26 C26           -4.7274     0.1099     6.0148 C.3     
  27 O27           -3.7939    -0.7102     3.6734 O.2     
  28 H28            3.1135     1.8276    -1.0848 H       
  29 H29            1.6604     1.4364    -2.0408 H       
  30 H30            1.1195     3.0714    -0.2427 H       
  31 H31            1.7244     1.9229     0.9797 H       
  32 H32           -1.9912    -4.5637    -0.9213 H       
  33 H33           -1.8463    -5.2531     0.7298 H       
  34 H34           -2.0323    -0.1662     0.6467 H       
  35 H35            2.0398    -2.6213    -0.6503 H       
  36 H36           -3.2623    -2.5777    -2.0248 H       
  37 H37           -5.6273    -2.0294    -2.4470 H       
  38 H38           -7.2128    -1.9029    -0.5681 H       
  39 H39           -6.4483    -2.3256     1.7260 H       
  40 H40           -5.4411    -3.2825     3.5496 H       
  41 H41           -3.8883    -3.6979     4.3142 H       
  42 H42           -5.9979    -1.5809     5.6047 H       
  43 H43           -4.4452    -1.9962     6.3693 H       
  44 H44           -5.1623     0.2929     6.9973 H       
  45 H45           -3.6610     0.3333     6.0421 H       
  46 H46           -5.2137     0.7487     5.2775 H       
@<TRIPOS>BOND
   1    1    2 1
   2    1    6 1
   3    2    3 ar
   4    2   12 ar
   5    3    4 1
   6    3   13 ar
   7    4    5 1
   8    5    6 1
   9    5   28 1
  10    5   29 1
  11    6   30 1
  12    6   31 1
  13    7    8 1
  14    7   11 1
  15    8    9 1
  16    8   32 1
  17    8   33 1
  18    9   10 1
  19    9   15 1
  20    9   16 1
  21   10   11 ar
  22   10   12 ar
  23   11   13 ar
  24   12   34 1
  25   13   35 1
  26   14   15 am
  27   14   21 1
  28   14   23 1
  29   15   22 2
  30   16   17 ar
  31   16   21 ar
  32   17   18 ar
  33   17   36 1
  34   18   19 ar
  35   18   37 1
  36   19   20 ar
  37   19   38 1
  38   20   21 ar
  39   20   39 1
  40   23   24 1
  41   23   40 1
  42   23   41 1
  43   24   25 1
  44   24   27 2
  45   25   26 1
  46   25   42 1
  47   25   43 1
  48   26   44 1
  49   26   45 1
  50   26   46 1

#	End of record

