#	Name: ASD03081183
#	Creating user name:	WinNT
#	Creation time:	15. 06. 2019 20:27

#	Modifying user name:	WinNT
#	Modification time:	15. 06. 2019 20:27

#	Program:	/corina/corina34_cracker 3.40 0067  02.08.2006

@<TRIPOS>MOLECULE
ASD03081183
  24   25    0    0    0
SMALL
NO_CHARGES


@<TRIPOS>ATOM
   1 C1            -0.0167     1.3799     0.0096 C.ar    
   2 C2             0.0021    -0.0041     0.0020 C.ar    
   3 C3             1.2199    -0.6634    -0.0132 C.ar    
   4 C4             2.3846     0.0982    -0.0203 C.ar    
   5 C5             2.2856     1.4812    -0.0119 C.ar    
   6 N6             1.1066     2.0718     0.0026 N.ar    
   7 Cl7           -1.5380     2.2160     0.0214 Cl      
   8 O8             3.6025    -0.5054    -0.0347 O.3     
   9 C9             4.7491     0.3474    -0.0412 C.3     
  10 N10            6.4472    -0.9476     1.2829 N.3     
  11 C11            6.0191    -0.5057    -0.0574 C.3     
  12 C12            7.3102     0.3210    -0.1362 C.3     
  13 C13            7.8397    -0.7311     0.8483 C.3     
  14 H14           -0.9219    -0.5631     0.0082 H       
  15 H15            1.2646    -1.7424    -0.0191 H       
  16 H16            3.1836     2.0811    -0.0169 H       
  17 H17            4.7257     0.9810    -0.9278 H       
  18 H18            4.7424     0.9720     0.8521 H       
  19 H19            6.1798    -0.2766     1.9874 H       
  20 H20            5.9756    -1.3137    -0.7877 H       
  21 H21            7.7937     0.3015    -1.1129 H       
  22 H22            7.2250     1.3229     0.2844 H       
  23 H23            8.4780    -0.3144     1.6274 H       
  24 H24            8.2821    -1.5993     0.3597 H       
@<TRIPOS>BOND
   1    1    2 ar
   2    1    6 ar
   3    1    7 1
   4    2    3 ar
   5    2   14 1
   6    3    4 ar
   7    3   15 1
   8    4    5 ar
   9    4    8 1
  10    5    6 ar
  11    5   16 1
  12    8    9 1
  13    9   11 1
  14    9   17 1
  15    9   18 1
  16   10   11 1
  17   10   13 1
  18   10   19 1
  19   11   12 1
  20   11   20 1
  21   12   13 1
  22   12   21 1
  23   12   22 1
  24   13   23 1
  25   13   24 1

#	End of record

