#	Name: ASD01917081
#	Creating user name:	WinNT
#	Creation time:	15. 06. 2019 20:08

#	Modifying user name:	WinNT
#	Modification time:	15. 06. 2019 20:08

#	Program:	/corina/corina34_cracker 3.40 0067  02.08.2006

@<TRIPOS>MOLECULE
ASD01917081
  38   40    0    0    0
SMALL
NO_CHARGES


@<TRIPOS>ATOM
   1 C1            -0.3726     1.0556     0.0424 C.2     
   2 C2            -0.1021    -0.4268     0.0297 C.3     
   3 O3             0.5481     1.8379     0.0269 O.2     
   4 O4            -1.6365     1.5071     0.0653 O.3     
   5 N5             1.3440    -0.6591    -0.0016 N.pl3   
   6 N6             2.2032    -0.7628     1.1043 N.2     
   7 C7             3.4131    -0.9708     0.6307 C.2     
   8 N8             3.3570    -1.0026    -0.7053 N.2     
   9 C9             2.1150    -0.8221    -1.1018 C.2     
  10 C10            1.6447    -0.7979    -2.5047 C.ar    
  11 C11            0.4275    -0.1964    -2.8251 C.ar    
  12 C12           -0.0053    -0.1767    -4.1351 C.ar    
  13 C13            0.7652    -0.7517    -5.1299 C.ar    
  14 C14            1.9730    -1.3501    -4.8185 C.ar    
  15 C15            2.4194    -1.3713    -3.5131 C.ar    
  16 C16            4.6407    -1.1418     1.4465 C.ar    
  17 C17            5.8686    -1.3573     0.8235 C.ar    
  18 C18            7.0079    -1.5160     1.5842 C.ar    
  19 C19            6.9324    -1.4612     2.9694 C.ar    
  20 C20            5.7107    -1.2467     3.5928 C.ar    
  21 C21            4.5690    -1.0816     2.8370 C.ar    
  22 O22            8.0565    -1.6183     3.7164 O.3     
  23 C23            7.9067    -1.5506     5.1359 C.3     
  24 H24           -0.5237    -0.8808     0.9265 H       
  25 H25           -0.5608    -0.8723    -0.8531 H       
  26 H26           -1.7600     2.4661     0.0727 H       
  27 H27           -0.1750     0.2525    -2.0493 H       
  28 H28           -0.9476     0.2884    -4.3844 H       
  29 H29            0.4221    -0.7337    -6.1538 H       
  30 H30            2.5698    -1.7977    -5.5995 H       
  31 H31            3.3648    -1.8345    -3.2719 H       
  32 H32            5.9278    -1.4004    -0.2540 H       
  33 H33            7.9596    -1.6833     1.1020 H       
  34 H34            5.6549    -1.2045     4.6705 H       
  35 H35            3.6196    -0.9099     3.3223 H       
  36 H36            8.8777    -1.6915     5.6108 H       
  37 H37            7.5049    -0.5759     5.4128 H       
  38 H38            7.2234    -2.3326     5.4669 H       
@<TRIPOS>BOND
   1    1    2 1
   2    1    3 2
   3    1    4 1
   4    2    5 1
   5    2   24 1
   6    2   25 1
   7    4   26 1
   8    5    6 1
   9    5    9 1
  10    6    7 2
  11    7    8 1
  12    7   16 1
  13    8    9 2
  14    9   10 1
  15   10   11 ar
  16   10   15 ar
  17   11   12 ar
  18   11   27 1
  19   12   13 ar
  20   12   28 1
  21   13   14 ar
  22   13   29 1
  23   14   15 ar
  24   14   30 1
  25   15   31 1
  26   16   17 ar
  27   16   21 ar
  28   17   18 ar
  29   17   32 1
  30   18   19 ar
  31   18   33 1
  32   19   20 ar
  33   19   22 1
  34   20   21 ar
  35   20   34 1
  36   21   35 1
  37   22   23 1
  38   23   36 1
  39   23   37 1
  40   23   38 1

#	End of record

