#	Name: ASD02508487
#	Creating user name:	WinNT
#	Creation time:	15. 06. 2019 20:24

#	Modifying user name:	WinNT
#	Modification time:	15. 06. 2019 20:24

#	Program:	/corina/corina34_cracker 3.40 0067  02.08.2006

@<TRIPOS>MOLECULE
ASD02508487
  33   35    0    0    0
SMALL
NO_CHARGES


@<TRIPOS>ATOM
   1 C1             1.1873     1.7994    -0.0948 C.2     
   2 C2             2.1745     0.8255     0.0930 C.2     
   3 C3             1.5949    -0.3890    -0.0479 C.2     
   4 N4             0.2785    -0.1875    -0.3171 N.pl3   
   5 N5             0.0530     1.1950    -0.3401 N.2     
   6 C6            -0.6771    -1.1792    -0.5321 C.2     
   7 S7             2.4014    -1.9493     0.0918 S.o2    
   8 N8             2.3678    -2.6544    -1.4062 N.am    
   9 C9             3.0031    -2.0330    -2.4857 C.ar    
  10 C10            2.3355    -1.8862    -3.6949 C.ar    
  11 O11            3.7662    -1.6717     0.3741 O.2     
  12 O12            1.5816    -2.7510     0.9311 O.2     
  13 C13            4.3002    -1.5568    -2.3489 C.ar    
  14 C14            4.9259    -0.9433    -3.4168 C.ar    
  15 C15            4.2606    -0.8031    -4.6228 C.ar    
  16 C16            2.9649    -1.2723    -4.7598 C.ar    
  17 C17            2.2435    -1.1187    -6.0740 C.3     
  18 N18           -1.9487    -0.9683    -0.6645 N.2     
  19 C19           -2.7125    -2.0247    -0.8632 C.2     
  20 C20           -2.0546    -3.1863    -0.9007 C.2     
  21 S21           -0.3410    -2.8502    -0.6667 S.3     
  22 F22            4.8743    -0.2024    -5.6658 F       
  23 H23            1.3355     2.8679    -0.0416 H       
  24 H24            3.2159     1.0107     0.3113 H       
  25 H25            1.9074    -3.4984    -1.5348 H       
  26 H26            1.3251    -2.2523    -3.8023 H       
  27 H27            4.8194    -1.6656    -1.4082 H       
  28 H28            5.9346    -0.5723    -3.3107 H       
  29 H29            2.4320    -1.9935    -6.6964 H       
  30 H30            1.1728    -1.0261    -5.8921 H       
  31 H31            2.6040    -0.2254    -6.5841 H       
  32 H32           -3.7834    -1.9561    -0.9853 H       
  33 H33           -2.4952    -4.1606    -1.0521 H       
@<TRIPOS>BOND
   1    1    2 1
   2    1    5 2
   3    1   23 1
   4    2    3 2
   5    2   24 1
   6    3    4 1
   7    3    7 1
   8    4    5 1
   9    4    6 1
  10    6   18 2
  11    6   21 1
  12    7    8 am
  13    7   11 2
  14    7   12 2
  15    8    9 1
  16    8   25 1
  17    9   13 ar
  18    9   10 ar
  19   10   16 ar
  20   10   26 1
  21   13   14 ar
  22   13   27 1
  23   14   15 ar
  24   14   28 1
  25   15   16 ar
  26   15   22 1
  27   16   17 1
  28   17   29 1
  29   17   30 1
  30   17   31 1
  31   18   19 1
  32   19   20 2
  33   19   32 1
  34   20   21 1
  35   20   33 1

#	End of record

