#	Name: ASD03331844
#	Creating user name:	WinNT
#	Creation time:	15. 06. 2019 20:40

#	Modifying user name:	WinNT
#	Modification time:	15. 06. 2019 20:40

#	Program:	/corina/corina34_cracker 3.40 0067  02.08.2006

@<TRIPOS>MOLECULE
ASD03331844
  60   62    0    0    0
SMALL
NO_CHARGES


@<TRIPOS>ATOM
   1 C1            -0.1865     1.2318    -0.7014 C.2     
   2 N2            -0.2380    -0.0958    -0.9862 N.pl3   
   3 C3            -1.5394    -0.4495    -1.0658 C.2     
   4 N4            -2.2770     0.6040    -0.8445 N.2     
   5 C5            -1.4650     1.6706    -0.6101 C.2     
   6 C6             1.0969     2.0019    -0.5278 C.3     
   7 N7             2.1903     1.0300    -0.3459 N.3     
   8 C8             2.1575    -0.0060    -1.3879 C.3     
   9 C9             0.9541    -0.9305    -1.1641 C.3     
  10 C10           -1.8964     3.0486    -0.3177 C.2     
  11 O11           -1.0673     3.9174    -0.1252 O.2     
  12 N12           -3.2097     3.3465    -0.2637 N.am    
  13 C13           -3.6386     4.7168     0.0270 C.3     
  14 C14           -3.6782     4.9283     1.5418 C.3     
  15 C15           -2.0549    -1.8341    -1.3625 C.3     
  16 C16           -2.9185    -2.3370    -0.1923 C.3     
  17 C17            3.4948     1.7048    -0.3153 C.3     
  18 C18           -2.2613     4.8214     2.1089 C.3     
  19 C19           -5.0125     4.9459    -0.5483 C.2     
  20 C20           -4.2470     6.3152     1.8484 C.3     
  21 C21           -4.5662     3.8599     2.1829 C.3     
  22 O22           -5.6481     4.0124    -0.9905 O.2     
  23 N23           -5.5349     6.1881    -0.5714 N.am    
  24 C24           -6.9012     6.3992    -1.0560 C.3     
  25 C25           -4.3284    -2.5934    -0.7635 C.3     
  26 C26           -4.0895    -2.8220    -2.2767 C.3     
  27 C27           -2.9703    -1.8024    -2.6038 C.3     
  28 H28            1.2860     2.6075    -1.4141 H       
  29 H29            1.0253     2.6443     0.3498 H       
  30 H30            2.0741     0.4668    -2.3664 H       
  31 H31            3.0764    -0.5908    -1.3463 H       
  32 H32            1.1159    -1.5353    -0.2719 H       
  33 H33            0.8229    -1.5794    -2.0301 H       
  34 H34           -3.8709     2.6536    -0.4173 H       
  35 H35           -2.9358     5.4201    -0.4197 H       
  36 H36           -1.2205    -2.5150    -1.5303 H       
  37 H37           -2.5035    -3.2624     0.2072 H       
  38 H38           -2.9646    -1.5796     0.5901 H       
  39 H39            3.5172     2.4148     0.5114 H       
  40 H40            4.2835     0.9647    -0.1801 H       
  41 H41            3.6515     2.2355    -1.2544 H       
  42 H42           -1.6287     5.5825     1.6523 H       
  43 H43           -2.2895     4.9720     3.1881 H       
  44 H44           -1.8561     3.8333     1.8905 H       
  45 H45           -5.2095     6.4315     1.3503 H       
  46 H46           -4.3795     6.4237     2.9249 H       
  47 H47           -3.5571     7.0785     1.4885 H       
  48 H48           -4.1610     2.8718     1.9644 H       
  49 H49           -4.5944     4.0105     3.2620 H       
  50 H50           -5.5756     3.9361     1.7788 H       
  51 H51           -5.0062     6.9423    -0.2672 H       
  52 H52           -6.9760     6.0628    -2.0901 H       
  53 H53           -7.5975     5.8322    -0.4382 H       
  54 H54           -7.1466     7.4598    -1.0003 H       
  55 H55           -4.7688    -3.4806    -0.3085 H       
  56 H56           -4.9678    -1.7249    -0.6051 H       
  57 H57           -3.7509    -3.8408    -2.4647 H       
  58 H58           -4.9914    -2.6019    -2.8477 H       
  59 H59           -3.3904    -0.8063    -2.7427 H       
  60 H60           -2.4195    -2.1124    -3.4919 H       
@<TRIPOS>BOND
   1    1    2 1
   2    1    6 1
   3    1    5 2
   4    2    3 1
   5    2    9 1
   6    3    4 2
   7    3   15 1
   8    4    5 1
   9    5   10 1
  10    6    7 1
  11    6   28 1
  12    6   29 1
  13    7    8 1
  14    7   17 1
  15    8    9 1
  16    8   30 1
  17    8   31 1
  18    9   32 1
  19    9   33 1
  20   10   11 2
  21   10   12 am
  22   12   13 1
  23   12   34 1
  24   13   14 1
  25   13   19 1
  26   13   35 1
  27   14   18 1
  28   14   20 1
  29   14   21 1
  30   15   16 1
  31   15   27 1
  32   15   36 1
  33   16   25 1
  34   16   37 1
  35   16   38 1
  36   17   39 1
  37   17   40 1
  38   17   41 1
  39   18   42 1
  40   18   43 1
  41   18   44 1
  42   19   22 2
  43   19   23 am
  44   20   45 1
  45   20   46 1
  46   20   47 1
  47   21   48 1
  48   21   49 1
  49   21   50 1
  50   23   24 1
  51   23   51 1
  52   24   52 1
  53   24   53 1
  54   24   54 1
  55   25   26 1
  56   25   55 1
  57   25   56 1
  58   26   27 1
  59   26   57 1
  60   26   58 1
  61   27   59 1
  62   27   60 1

#	End of record

