#	Name: ASD03720011
#	Creating user name:	WinNT
#	Creation time:	15. 06. 2019 20:43

#	Modifying user name:	WinNT
#	Modification time:	15. 06. 2019 20:43

#	Program:	/corina/corina34_cracker 3.40 0067  02.08.2006

@<TRIPOS>MOLECULE
ASD03720011
  89   94    0    0    0
SMALL
NO_CHARGES


@<TRIPOS>ATOM
   1 C1            -0.0058     1.8119    -0.0312 C.3     
   2 C2            -0.0332     0.3047     0.3505 C.3     
   3 C3             1.4448     2.1613    -0.1829 C.2     
   4 C4            -0.7419     2.4344     1.1574 C.3     
   5 C5            -1.4703     0.0853     0.7970 C.3     
   6 C6             0.4761    -0.4770    -0.8379 C.3     
   7 C7             2.0253     3.1179     0.5337 C.2     
   8 C8             2.2045     1.3424    -1.2168 C.3     
   9 C9            -1.9216     1.4475     1.3857 C.3     
  10 C10           -2.3464    -0.2934    -0.3988 C.3     
  11 C11            1.9703    -0.1515    -1.0012 C.3     
  12 C12            3.4528     3.4171     0.3419 C.2     
  13 C13           -3.7405    -0.6078     0.0795 C.2     
  14 C14            4.0353     4.3679     1.0645 C.2     
  15 C15            5.5271     4.6030     0.9789 C.3     
  16 C16            3.2225     5.2472     1.9889 C.3     
  17 C17            5.7712     6.0923     0.7136 C.3     
  18 C18            3.5547     6.7118     1.6850 C.3     
  19 C19            5.0627     6.9222     1.7856 C.3     
  20 O20            5.2565     6.4377    -0.5739 O.3     
  21 O21            2.8939     7.5563     2.6296 O.3     
  22 C22            0.9055     0.0689     1.5355 C.3     
  23 C23           -4.2165    -1.8222    -0.0424 C.2     
  24 C24           -2.3970     0.8757    -1.3844 C.3     
  25 C25           -5.6106    -2.1366     0.4358 C.3     
  26 C26           -6.4154    -2.7542    -0.7095 C.3     
  27 C27           -7.7885    -3.1877    -0.1921 C.3     
  28 O28           -6.5815    -1.7887    -1.7498 O.3     
  29 C29           -8.5934    -3.8052    -1.3373 C.3     
  30 C30           -9.9665    -4.2387    -0.8199 C.3     
  31 C31           -9.7887    -5.2724     0.2939 C.3     
  32 C32           -8.9839    -4.6548     1.4392 C.3     
  33 C33           -7.6108    -4.2214     0.9218 C.3     
  34 C34          -10.7124    -3.0208    -0.2711 C.3     
  35 C35           -9.9075    -2.4032     0.8741 C.3     
  36 C36           -8.5345    -1.9697     0.3567 C.3     
  37 C37           -9.7298    -3.4369     1.9880 C.3     
  38 H38           -0.5438     1.9872    -0.9628 H       
  39 H39           -0.0958     2.4735     2.0344 H       
  40 H40           -1.1127     3.4277     0.9048 H       
  41 H41           -1.5153    -0.6921     1.5597 H       
  42 H42            0.3472    -1.5448    -0.6611 H       
  43 H43           -0.0672    -0.1815    -1.7354 H       
  44 H44            1.4491     3.6757     1.2570 H       
  45 H45            1.8638     1.6189    -2.2146 H       
  46 H46            3.2701     1.5548    -1.1304 H       
  47 H47           -2.1237     1.3459     2.4520 H       
  48 H48           -2.8124     1.8026     0.8675 H       
  49 H49           -1.9263    -1.1685    -0.8944 H       
  50 H50            2.5031    -0.4689    -0.1049 H       
  51 H51            2.3616    -0.6997    -1.8582 H       
  52 H52            4.0274     2.8639    -0.3863 H       
  53 H53           -4.3472     0.1680     0.5227 H       
  54 H54            5.9974     4.3169     1.9197 H       
  55 H55            5.9447     4.0127     0.1633 H       
  56 H56            2.1600     5.0705     1.8219 H       
  57 H57            3.4756     5.0217     3.0249 H       
  58 H58            6.8415     6.2964     0.7442 H       
  59 H59            3.2182     6.9596     0.6782 H       
  60 H60            5.4111     6.6141     2.7714 H       
  61 H61            5.2901     7.9777     1.6357 H       
  62 H62            5.6606     5.9480    -1.3033 H       
  63 H63            1.9303     7.4751     2.6232 H       
  64 H64            0.5091     0.5705     2.4184 H       
  65 H65            0.9837    -1.0008     1.7298 H       
  66 H66            1.8923     0.4690     1.3026 H       
  67 H67           -3.6098    -2.5980    -0.4857 H       
  68 H68           -2.6076     1.7983    -0.8434 H       
  69 H69           -1.4370     0.9639    -1.8931 H       
  70 H70           -3.1824     0.6980    -2.1190 H       
  71 H71           -5.5596    -2.8416     1.2656 H       
  72 H72           -6.0964    -1.2191     0.7678 H       
  73 H73           -5.8840    -3.6219    -1.1004 H       
  74 H74           -7.0477    -0.9882    -1.4727 H       
  75 H75           -8.7200    -3.0688    -2.1309 H       
  76 H76           -8.0620    -4.6729    -1.7283 H       
  77 H77          -10.5399    -4.6787    -1.6358 H       
  78 H78          -10.7670    -5.5812     0.6625 H       
  79 H79           -9.2573    -6.1401    -0.0971 H       
  80 H80           -8.8572    -5.3913     2.2327 H       
  81 H81           -7.0794    -5.0891     0.5308 H       
  82 H82           -7.0374    -3.7814     1.7377 H       
  83 H83          -10.8391    -2.2843    -1.0647 H       
  84 H84          -11.6906    -3.3295     0.0975 H       
  85 H85          -10.4389    -1.5355     1.2651 H       
  86 H86           -7.9610    -1.5298     1.1726 H       
  87 H87           -8.6611    -1.2333    -0.4368 H       
  88 H88          -10.7080    -3.7457     2.3566 H       
  89 H89           -9.1564    -2.9969     2.8039 H       
@<TRIPOS>BOND
   1    1    2 1
   2    1    3 1
   3    1    4 1
   4    1   38 1
   5    2    5 1
   6    2    6 1
   7    2   22 1
   8    3    7 2
   9    3    8 1
  10    4    9 1
  11    4   39 1
  12    4   40 1
  13    5   10 1
  14    5    9 1
  15    5   41 1
  16    6   11 1
  17    6   42 1
  18    6   43 1
  19    7   12 1
  20    7   44 1
  21    8   11 1
  22    8   45 1
  23    8   46 1
  24    9   47 1
  25    9   48 1
  26   10   13 1
  27   10   24 1
  28   10   49 1
  29   11   50 1
  30   11   51 1
  31   12   14 2
  32   12   52 1
  33   13   23 2
  34   13   53 1
  35   14   15 1
  36   14   16 1
  37   15   17 1
  38   15   54 1
  39   15   55 1
  40   16   18 1
  41   16   56 1
  42   16   57 1
  43   17   19 1
  44   17   20 1
  45   17   58 1
  46   18   21 1
  47   18   19 1
  48   18   59 1
  49   19   60 1
  50   19   61 1
  51   20   62 1
  52   21   63 1
  53   22   64 1
  54   22   65 1
  55   22   66 1
  56   23   25 1
  57   23   67 1
  58   24   68 1
  59   24   69 1
  60   24   70 1
  61   25   26 1
  62   25   71 1
  63   25   72 1
  64   26   27 1
  65   26   28 1
  66   26   73 1
  67   27   29 1
  68   27   33 1
  69   27   36 1
  70   28   74 1
  71   29   30 1
  72   29   75 1
  73   29   76 1
  74   30   31 1
  75   30   34 1
  76   30   77 1
  77   31   32 1
  78   31   78 1
  79   31   79 1
  80   32   33 1
  81   32   37 1
  82   32   80 1
  83   33   81 1
  84   33   82 1
  85   34   35 1
  86   34   83 1
  87   34   84 1
  88   35   36 1
  89   35   37 1
  90   35   85 1
  91   36   86 1
  92   36   87 1
  93   37   88 1
  94   37   89 1

#	End of record

