#	Name: ASD03180101
#	Creating user name:	WinNT
#	Creation time:	15. 06. 2019 20:33

#	Modifying user name:	WinNT
#	Modification time:	15. 06. 2019 20:33

#	Program:	/corina/corina34_cracker 3.40 0067  02.08.2006

@<TRIPOS>MOLECULE
ASD03180101
  35   37    0    0    0
SMALL
NO_CHARGES


@<TRIPOS>ATOM
   1 N1            -0.0169     1.3934     0.0097 N.pl3   
   2 C2            -0.0133    -0.0037    -0.0285 C.ar    
   3 C3             0.9583    -2.0581    -0.7943 C.ar    
   4 C4            -0.0069    -2.7697    -0.1050 C.ar    
   5 C5            -0.9781    -2.1019     0.6179 C.ar    
   6 C6            -0.9843    -0.7213     0.6582 C.ar    
   7 C7             0.9580    -0.6778    -0.7583 C.ar    
   8 C8            -2.0429     0.0057     1.4468 C.3     
   9 C9            -3.1956     0.3920     0.5179 C.3     
  10 N10            1.2977     3.3785    -0.0860 N.2     
  11 C11            2.5349     3.8734    -0.0794 C.2     
  12 C12            1.1815     2.0900     0.0004 C.2     
  13 S13            2.7814     1.3620     0.1047 S.3     
  14 C14            3.5179     2.9602     0.0173 C.2     
  15 C15            2.8085     5.3265    -0.1725 C.ar    
  16 C16            3.3440     7.9918    -0.3413 C.ar    
  17 C17            2.0181     7.5794    -0.3508 C.ar    
  18 C18            1.7466     6.2259    -0.2650 C.ar    
  19 N19            4.0622     5.7625    -0.1618 N.ar    
  20 C20            4.3474     7.0469    -0.2422 C.ar    
  21 H21           -0.8580     1.8756     0.0387 H       
  22 H22            1.7157    -2.5828    -1.3577 H       
  23 H23           -0.0044    -3.8492    -0.1349 H       
  24 H24           -1.7303    -2.6605     1.1551 H       
  25 H25            1.7117    -0.1228    -1.2971 H       
  26 H26           -2.4163    -0.6438     2.2386 H       
  27 H27           -1.6140     0.9058     1.8873 H       
  28 H28           -3.9613     0.9178     1.0883 H       
  29 H29           -2.8222     1.0414    -0.2738 H       
  30 H30           -3.6246    -0.5081     0.0775 H       
  31 H31            4.5770     3.1706     0.0375 H       
  32 H32            3.5887     9.0416    -0.4073 H       
  33 H33            1.2167     8.2993    -0.4271 H       
  34 H34            0.7268     5.8705    -0.2699 H       
  35 H35            5.3795     7.3648    -0.2350 H       
@<TRIPOS>BOND
   1    1    2 1
   2    1   12 1
   3    1   21 1
   4    2    7 ar
   5    2    6 ar
   6    3    4 ar
   7    3    7 ar
   8    3   22 1
   9    4    5 ar
  10    4   23 1
  11    5    6 ar
  12    5   24 1
  13    6    8 1
  14    7   25 1
  15    8    9 1
  16    8   26 1
  17    8   27 1
  18    9   28 1
  19    9   29 1
  20    9   30 1
  21   10   12 2
  22   10   11 1
  23   11   14 2
  24   11   15 1
  25   12   13 1
  26   13   14 1
  27   14   31 1
  28   15   19 ar
  29   15   18 ar
  30   16   17 ar
  31   16   20 ar
  32   16   32 1
  33   17   18 ar
  34   17   33 1
  35   18   34 1
  36   19   20 ar
  37   20   35 1

#	End of record

