#	Name: ASD06390020
#	Creating user name:	WinNT
#	Creation time:	15. 06. 2019 21:06

#	Modifying user name:	WinNT
#	Modification time:	15. 06. 2019 21:06

#	Program:	/corina/corina34_cracker 3.40 0067  02.08.2006

@<TRIPOS>MOLECULE
ASD06390020
  45   46    0    0    0
SMALL
NO_CHARGES


@<TRIPOS>ATOM
   1 Cl1            7.4308     9.6453    -7.7775 Cl      
   2 Cl2            8.8647     8.4996    -2.6973 Cl      
   3 O3             0.0021    -0.0041     0.0020 O.2     
   4 S4            -0.0172     1.4168     0.0098 S.o2    
   5 N5             1.5819     1.8470    -0.0031 N.am    
   6 C6             1.9600     3.2621     0.0246 C.3     
   7 C7             3.2454     3.4305     0.8380 C.3     
   8 C8             3.6186     4.9152     0.8939 C.3     
   9 N9             3.7004     5.4343    -0.4782 N.am    
  10 C10            4.8080     6.0718    -0.9064 C.2     
  11 C11            4.8766     6.5984    -2.3167 C.3     
  12 N12            6.1732     7.2448    -2.5340 N.pl3   
  13 C13            6.4715     7.8132    -3.7761 C.ar    
  14 C14            5.5400     7.7658    -4.8044 C.ar    
  15 C15            5.8371     8.3287    -6.0307 C.ar    
  16 C16            7.0615     8.9393    -6.2351 C.ar    
  17 C17            7.9929     8.9881    -5.2124 C.ar    
  18 C18            7.6992     8.4320    -3.9821 C.ar    
  19 O19            5.7495     6.2216    -0.1566 O.2     
  20 C20            2.5520     5.2446    -1.3749 C.3     
  21 C21            2.1907     3.7563    -1.4053 C.3     
  22 C22           -0.6699     2.0532    -1.5585 C.3     
  23 C23           -2.1580     1.7147    -1.6664 C.3     
  24 O24           -0.5647     2.1360     1.1063 O.2     
  25 H25            2.2682     1.1620    -0.0291 H       
  26 H26            1.1604     3.8426     0.4847 H       
  27 H27            3.0873     3.0568     1.8496 H       
  28 H28            4.0516     2.8703     0.3645 H       
  29 H29            2.8558     5.4632     1.4470 H       
  30 H30            4.5840     5.0310     1.3865 H       
  31 H31            4.7599     5.7730    -3.0189 H       
  32 H32            4.0782     7.3239    -2.4728 H       
  33 H33            6.8248     7.2785    -1.8162 H       
  34 H34            4.5840     7.2890    -4.6460 H       
  35 H35            5.1126     8.2916    -6.8309 H       
  36 H36            8.9481     9.4651    -5.3748 H       
  37 H37            1.7022     5.8195    -1.0068 H       
  38 H38            2.8137     5.5778    -2.3792 H       
  39 H39            3.0069     3.1929    -1.8577 H       
  40 H40            1.2820     3.6144    -1.9904 H       
  41 H41           -0.5397     3.1348    -1.5940 H       
  42 H42           -0.1319     1.5951    -2.3885 H       
  43 H43           -2.5502     2.0971    -2.6088 H       
  44 H44           -2.2882     0.6331    -1.6309 H       
  45 H45           -2.6960     2.1728    -0.8364 H       
@<TRIPOS>BOND
   1    1   16 1
   2    2   18 1
   3    3    4 2
   4    4    5 am
   5    4   22 1
   6    4   24 2
   7    5    6 1
   8    5   25 1
   9    6    7 1
  10    6   21 1
  11    6   26 1
  12    7    8 1
  13    7   27 1
  14    7   28 1
  15    8    9 1
  16    8   29 1
  17    8   30 1
  18    9   10 am
  19    9   20 1
  20   10   11 1
  21   10   19 2
  22   11   12 1
  23   11   31 1
  24   11   32 1
  25   12   13 1
  26   12   33 1
  27   13   14 ar
  28   13   18 ar
  29   14   15 ar
  30   14   34 1
  31   15   16 ar
  32   15   35 1
  33   16   17 ar
  34   17   18 ar
  35   17   36 1
  36   20   21 1
  37   20   37 1
  38   20   38 1
  39   21   39 1
  40   21   40 1
  41   22   23 1
  42   22   41 1
  43   22   42 1
  44   23   43 1
  45   23   44 1
  46   23   45 1

#	End of record

