#	Name: ASD04170022
#	Creating user name:	WinNT
#	Creation time:	15. 06. 2019 20:48

#	Modifying user name:	WinNT
#	Modification time:	15. 06. 2019 20:48

#	Program:	/corina/corina34_cracker 3.40 0067  02.08.2006

@<TRIPOS>MOLECULE
ASD04170022
  35   37    0    0    0
SMALL
NO_CHARGES


@<TRIPOS>ATOM
   1 Cl1            0.0021    -0.0041     0.0020 Cl      
   2 C2            -0.0215     1.7317     0.0116 C.ar    
   3 C3             1.1688     2.4390     0.0040 C.ar    
   4 C4             1.1585     3.8226     0.0115 C.ar    
   5 C5            -0.0390     4.5068     0.0266 C.ar    
   6 C6            -1.2436     3.8004     0.0343 C.ar    
   7 C7            -1.2273     2.4046     0.0209 C.ar    
   8 C8            -2.5297     4.5271     0.0510 C.2     
   9 O9            -2.5409     5.7417     0.0581 O.2     
  10 O10           -3.6900     3.8428     0.0584 O.3     
  11 C11           -4.9149     4.6222     0.0748 C.3     
  12 C12           -5.3616     4.9058    -1.3611 C.3     
  13 N13           -6.6909     4.3363    -1.5946 N.4     
  14 C14           -7.6774     4.9455    -0.6993 C.3     
  15 C15           -7.3075     4.6625     0.7584 C.3     
  16 C16           -6.0183     3.8310     0.7894 C.3     
  17 C17           -6.2627     2.5310     0.0118 C.3     
  18 C18           -6.6663     2.8819    -1.4220 C.3     
  19 H19            2.1094     1.9084    -0.0075 H       
  20 H20            2.0906     4.3682     0.0059 H       
  21 H21           -0.0451     5.5867     0.0329 H       
  22 H22           -2.1554     1.8522     0.0265 H       
  23 H23           -4.7418     5.5637     0.5961 H       
  24 H24           -5.3962     5.9831    -1.5231 H       
  25 H25           -4.6500     4.4598    -2.0560 H       
  26 H26           -6.9597     4.5330    -2.5470 H       
  27 H27           -7.6990     6.0227    -0.8644 H       
  28 H28           -8.6625     4.5292    -0.9099 H       
  29 H29           -7.1477     5.6039     1.2841 H       
  30 H30           -8.1127     4.1061     1.2382 H       
  31 H31           -5.7276     3.6232     1.8192 H       
  32 H32           -5.3496     1.9359    -0.0010 H       
  33 H33           -7.0631     1.9652     0.4885 H       
  34 H34           -7.6567     2.4764    -1.6285 H       
  35 H35           -5.9474     2.4474    -2.1167 H       
@<TRIPOS>BOND
   1    1    2 1
   2    2    3 ar
   3    2    7 ar
   4    3    4 ar
   5    3   19 1
   6    4    5 ar
   7    4   20 1
   8    5    6 ar
   9    5   21 1
  10    6    7 ar
  11    6    8 1
  12    7   22 1
  13    8    9 2
  14    8   10 1
  15   10   11 1
  16   11   12 1
  17   11   16 1
  18   11   23 1
  19   12   13 1
  20   12   24 1
  21   12   25 1
  22   13   14 1
  23   13   18 1
  24   13   26 1
  25   14   15 1
  26   14   27 1
  27   14   28 1
  28   15   16 1
  29   15   29 1
  30   15   30 1
  31   16   17 1
  32   16   31 1
  33   17   18 1
  34   17   32 1
  35   17   33 1
  36   18   34 1
  37   18   35 1

#	End of record

