#	Name: ASD09080101
#	Creating user name:	WinNT
#	Creation time:	15. 06. 2019 21:20

#	Modifying user name:	WinNT
#	Modification time:	15. 06. 2019 21:20

#	Program:	/corina/corina34_cracker 3.40 0067  02.08.2006

@<TRIPOS>MOLECULE
ASD09080101
  41   41    0    0    0
SMALL
NO_CHARGES


@<TRIPOS>ATOM
   1 C1            -0.0167     1.3790     0.0096 C.ar    
   2 C2             0.0021    -0.0041     0.0020 C.ar    
   3 C3            -1.1855    -0.7112     0.0100 C.ar    
   4 C4            -2.3919    -0.0363     0.0257 C.ar    
   5 C5            -2.4112     1.3459     0.0333 C.ar    
   6 C6            -1.2240     2.0538     0.0306 C.ar    
   7 Br7            1.6078     2.3470    -0.0007 Br      
   8 C8            -3.6865    -0.8078     0.0339 C.3     
   9 C9            -4.1105    -1.0770     1.4791 C.3     
  10 C10           -5.4641    -1.7395     1.4903 C.2     
  11 O11           -5.5965    -2.8348     1.9828 O.2     
  12 O12           -6.5225    -1.1126     0.9533 O.3     
  13 C13           -7.7951    -1.8103     0.9995 C.3     
  14 N14           -3.1305    -1.9577     2.1195 N.am    
  15 O15           -2.0833    -2.7509     4.0478 O.3     
  16 C16           -1.9797    -2.6801     5.4944 C.3     
  17 C17           -3.3281    -3.0414     6.1206 C.3     
  18 C18           -0.9127    -3.6643     5.9779 C.3     
  19 C19           -1.5890    -1.2601     5.9088 C.3     
  20 C20           -2.9840    -1.9415     3.4592 C.2     
  21 O21           -3.6648    -1.1964     4.1358 O.2     
  22 H22            0.9445    -0.5314    -0.0105 H       
  23 H23           -1.1710    -1.7911     0.0037 H       
  24 H24           -3.3539     1.8727     0.0455 H       
  25 H25           -1.2391     3.1337     0.0365 H       
  26 H26           -4.4591    -0.2263    -0.4691 H       
  27 H27           -3.5481    -1.7553    -0.4867 H       
  28 H28           -4.1628    -0.1345     2.0241 H       
  29 H29           -8.5641    -1.1946     0.5330 H       
  30 H30           -7.7111    -2.7553     0.4629 H       
  31 H31           -8.0654    -2.0046     2.0375 H       
  32 H32           -2.5870    -2.5525     1.5794 H       
  33 H33           -3.6064    -4.0530     5.8253 H       
  34 H34           -3.2502    -2.9883     7.2065 H       
  35 H35           -4.0882    -2.3402     5.7761 H       
  36 H36            0.0479    -3.4069     5.5318 H       
  37 H37           -0.8349    -3.6112     7.0639 H       
  38 H38           -1.1910    -4.6760     5.6827 H       
  39 H39           -2.3491    -0.5589     5.5643 H       
  40 H40           -1.5111    -1.2070     6.9947 H       
  41 H41           -0.6283    -1.0027     5.4627 H       
@<TRIPOS>BOND
   1    1    2 ar
   2    1    7 1
   3    1    6 ar
   4    2    3 ar
   5    2   22 1
   6    3    4 ar
   7    3   23 1
   8    4    5 ar
   9    4    8 1
  10    5    6 ar
  11    5   24 1
  12    6   25 1
  13    8    9 1
  14    8   26 1
  15    8   27 1
  16    9   10 1
  17    9   14 1
  18    9   28 1
  19   10   11 2
  20   10   12 1
  21   12   13 1
  22   13   29 1
  23   13   30 1
  24   13   31 1
  25   14   20 am
  26   14   32 1
  27   15   16 1
  28   15   20 1
  29   16   17 1
  30   16   18 1
  31   16   19 1
  32   17   33 1
  33   17   34 1
  34   17   35 1
  35   18   36 1
  36   18   37 1
  37   18   38 1
  38   19   39 1
  39   19   40 1
  40   19   41 1
  41   20   21 2

#	End of record

