#	Name: ASD05730024
#	Creating user name:	WinNT
#	Creation time:	15. 06. 2019 21:02

#	Modifying user name:	WinNT
#	Modification time:	15. 06. 2019 21:02

#	Program:	/corina/corina34_cracker 3.40 0067  02.08.2006

@<TRIPOS>MOLECULE
ASD05730024
  69   73    0    0    0
SMALL
NO_CHARGES


@<TRIPOS>ATOM
   1 C1             0.0150     2.2226     1.3528 C.ar    
   2 C2             0.2530     0.8615     1.1341 C.ar    
   3 C3            -0.7521     0.0420     0.6750 C.ar    
   4 C4            -2.0209     0.5590     0.4222 C.ar    
   5 C5            -2.2626     1.9250     0.6413 C.ar    
   6 C6            -1.2530     2.7522     1.1095 C.ar    
   7 N7            -3.1831    -0.0404    -0.0353 N.am    
   8 C8            -4.1882     0.8456    -0.1348 C.2     
   9 C9            -3.6810     2.1584     0.2865 C.2     
  10 C10           -4.3758     3.3501     0.3406 C.2     
  11 C11           -5.7663     3.3683     0.0960 C.2     
  12 C12           -7.7274     3.8502    -0.8271 C.2     
  13 C13           -7.9725     2.9920     0.2296 C.2     
  14 C14           -6.7264     2.6871     0.8180 C.2     
  15 C15           -6.4892     1.7906     2.0059 C.3     
  16 C16           -9.2897     2.4900     0.6611 C.2     
  17 O17           -9.7299     1.4575     0.1932 O.2     
  18 N18          -10.0060     3.1752     1.5742 N.am    
  19 O19           -5.3217     0.6028    -0.5085 O.2     
  20 C20            1.0998     3.0944     1.8450 C.2     
  21 O21            0.8907     4.2770     2.0344 O.2     
  22 N22            2.3221     2.5794     2.0845 N.am    
  23 C23            3.3987     3.4446     2.5730 C.3     
  24 C24            4.6720     2.6174     2.7613 C.3     
  25 C25            5.9661     3.6781     4.6228 C.ar    
  26 C26            5.7794     3.5074     3.2638 C.ar    
  27 C27            6.9820     4.4944     5.0837 C.ar    
  28 C28            7.8111     5.1401     4.1857 C.ar    
  29 C29            7.6247     4.9691     2.8267 C.ar    
  30 C30            6.6088     4.1527     2.3657 C.ar    
  31 C31          -11.3274     2.7903     2.0912 C.3     
  32 C32          -11.7646     3.8826     3.0899 C.3     
  33 C33          -10.9187     5.1089     2.6560 C.3     
  34 C34           -9.5914     4.4315     2.2248 C.3     
  35 C35           -8.7711     4.4367    -1.7424 C.3     
  36 N36           -6.4048     4.0743    -0.9024 N.pl3   
  37 C37           -5.7450     4.9333    -1.8889 C.3     
  38 H38            1.2333     0.4511     1.3267 H       
  39 H39           -0.5566    -1.0072     0.5095 H       
  40 H40           -1.4444     3.8019     1.2767 H       
  41 H41           -3.2613    -0.9816    -0.2566 H       
  42 H42           -3.8558     4.2684     0.5699 H       
  43 H43           -6.3325     0.7677     1.6635 H       
  44 H44           -5.6071     2.1315     2.5479 H       
  45 H45           -7.3564     1.8242     2.6654 H       
  46 H46            2.4889     1.6358     1.9334 H       
  47 H47            3.5844     4.2376     1.8487 H       
  48 H48            3.1068     3.8845     3.5266 H       
  49 H49            4.4862     1.8243     3.4856 H       
  50 H50            4.9638     2.1775     1.8077 H       
  51 H51            5.3156     3.1771     5.3244 H       
  52 H52            7.1277     4.6280     6.1455 H       
  53 H53            8.6044     5.7785     4.5458 H       
  54 H54            8.2724     5.4736     2.1250 H       
  55 H55            6.4629     4.0194     1.3040 H       
  56 H56          -12.0430     2.7298     1.2713 H       
  57 H57          -11.2607     1.8285     2.5996 H       
  58 H58          -12.8292     4.0934     2.9892 H       
  59 H59          -11.5233     3.5898     4.1118 H       
  60 H60          -11.3854     5.6292     1.8197 H       
  61 H61          -10.7552     5.7868     3.4937 H       
  62 H62           -8.9696     4.2264     3.0962 H       
  63 H63           -9.0560     5.0632     1.5159 H       
  64 H64           -9.1232     5.3833    -1.3325 H       
  65 H65           -8.3364     4.6065    -2.7274 H       
  66 H66           -9.6085     3.7444    -1.8293 H       
  67 H67           -5.5618     4.3650    -2.8008 H       
  68 H68           -6.3856     5.7858    -2.1146 H       
  69 H69           -4.7968     5.2882    -1.4852 H       
@<TRIPOS>BOND
   1    1    2 ar
   2    1   20 1
   3    1    6 ar
   4    2    3 ar
   5    2   38 1
   6    3    4 ar
   7    3   39 1
   8    4    5 ar
   9    4    7 1
  10    5    6 ar
  11    5    9 1
  12    6   40 1
  13    7    8 am
  14    7   41 1
  15    8    9 1
  16    8   19 2
  17    9   10 2
  18   10   11 1
  19   10   42 1
  20   11   36 1
  21   11   14 2
  22   12   13 2
  23   12   35 1
  24   12   36 1
  25   13   14 1
  26   13   16 1
  27   14   15 1
  28   15   43 1
  29   15   44 1
  30   15   45 1
  31   16   17 2
  32   16   18 am
  33   18   31 1
  34   18   34 1
  35   20   21 2
  36   20   22 am
  37   22   23 1
  38   22   46 1
  39   23   24 1
  40   23   47 1
  41   23   48 1
  42   24   26 1
  43   24   49 1
  44   24   50 1
  45   25   26 ar
  46   25   27 ar
  47   25   51 1
  48   26   30 ar
  49   27   28 ar
  50   27   52 1
  51   28   29 ar
  52   28   53 1
  53   29   30 ar
  54   29   54 1
  55   30   55 1
  56   31   32 1
  57   31   56 1
  58   31   57 1
  59   32   33 1
  60   32   58 1
  61   32   59 1
  62   33   34 1
  63   33   60 1
  64   33   61 1
  65   34   62 1
  66   34   63 1
  67   35   64 1
  68   35   65 1
  69   35   66 1
  70   36   37 1
  71   37   67 1
  72   37   68 1
  73   37   69 1

#	End of record

