#	Name: ASD01900046
#	Creating user name:	WinNT
#	Creation time:	15. 06. 2019 19:51

#	Modifying user name:	WinNT
#	Modification time:	15. 06. 2019 19:51

#	Program:	/corina/corina34_cracker 3.40 0067  02.08.2006

@<TRIPOS>MOLECULE
ASD01900046
  40   42    0    0    0
SMALL
NO_CHARGES


@<TRIPOS>ATOM
   1 C1             0.0288     1.5770    -0.0625 C.3     
   2 C2             0.0130     0.0375     0.0444 C.3     
   3 C3             1.2125    -0.5398     0.7508 C.2     
   4 O4             2.2680     0.0576     0.7404 O.2     
   5 O5             2.2573     1.7556    -1.1102 O.3     
   6 C6             1.4135     2.1652    -0.1500 C.2     
   7 O7             1.7642     3.0055     0.6443 O.2     
   8 N8             1.1123    -1.7198     1.3942 N.am    
   9 C9             2.2519    -2.3139     1.9475 C.ar    
  10 C10            2.1349    -3.1487     3.0509 C.ar    
  11 C11            3.2622    -3.7348     3.5954 C.ar    
  12 C12            4.5067    -3.4898     3.0421 C.ar    
  13 C13            4.6261    -2.6582     1.9425 C.ar    
  14 C14            3.5012    -2.0742     1.3907 C.ar    
  15 Cl15           6.1891    -2.3534     1.2513 Cl      
  16 Cl16           3.1168    -4.7786     4.9749 Cl      
  17 C17            0.3861     0.2915     3.3130 C.2     
  18 C18           -0.4708    -0.6586     3.1632 C.2     
  19 C19           -1.4612    -0.7421     2.0465 C.3     
  20 C20           -1.1928     0.2506     0.9471 C.3     
  21 C21           -0.5624     1.5795     1.3736 C.3     
  22 C22            0.5837     1.4375     2.3795 C.3     
  23 C23            1.2637     0.2408     4.5370 C.3     
  24 H24           -0.6493     1.9716    -0.8191 H       
  25 H25           -0.2165    -0.4692    -0.8930 H       
  26 H26            3.1347     2.1618    -1.1262 H       
  27 H27            0.2502    -2.1573     1.4736 H       
  28 H28            1.1639    -3.3397     3.4836 H       
  29 H29            5.3863    -3.9481     3.4694 H       
  30 H30            3.5948    -1.4256     0.5323 H       
  31 H31           -0.4737    -1.4515     3.8964 H       
  32 H32           -1.4322    -1.7474     1.6263 H       
  33 H33           -2.4583    -0.5605     2.4475 H       
  34 H34           -2.0932     0.4353     0.3611 H       
  35 H35           -1.2661     2.3821     1.5944 H       
  36 H36            0.6588     2.3567     2.9605 H       
  37 H37            1.5157     1.2908     1.8336 H       
  38 H38            1.0144    -0.6413     5.1266 H       
  39 H39            2.3092     0.1908     4.2326 H       
  40 H40            1.1025     1.1364     5.1370 H       
@<TRIPOS>BOND
   1    1    2 1
   2    1    6 1
   3    1   21 1
   4    1   24 1
   5    2    3 1
   6    2   20 1
   7    2   25 1
   8    3    4 2
   9    3    8 am
  10    5    6 1
  11    5   26 1
  12    6    7 2
  13    8    9 1
  14    8   27 1
  15    9   10 ar
  16    9   14 ar
  17   10   11 ar
  18   10   28 1
  19   11   12 ar
  20   11   16 1
  21   12   13 ar
  22   12   29 1
  23   13   14 ar
  24   13   15 1
  25   14   30 1
  26   17   18 2
  27   17   23 1
  28   17   22 1
  29   18   19 1
  30   18   31 1
  31   19   20 1
  32   19   32 1
  33   19   33 1
  34   20   21 1
  35   20   34 1
  36   21   22 1
  37   21   35 1
  38   22   36 1
  39   22   37 1
  40   23   38 1
  41   23   39 1
  42   23   40 1

#	End of record

