#	Name: ASD01140741
#	Creating user name:	WinNT
#	Creation time:	15. 06. 2019 19:01

#	Modifying user name:	WinNT
#	Modification time:	15. 06. 2019 19:01

#	Program:	/corina/corina34_cracker 3.40 0067  02.08.2006

@<TRIPOS>MOLECULE
ASD01140741
  41   45    0    0    0
SMALL
NO_CHARGES


@<TRIPOS>ATOM
   1 N1            -0.1365     1.1144    -0.0912 N.pl3   
   2 C2             0.0843    -0.2269     0.0122 C.2     
   3 C3             1.4367    -0.8924     0.0123 C.3     
   4 N4             2.1011    -0.5508    -1.2504 N.2     
   5 C5             2.3632     0.6692    -1.5714 C.2     
   6 C6             2.0648     1.8893    -0.8126 C.ar    
   7 C7             0.8540     2.0960    -0.1457 C.ar    
   8 C8             3.0433     2.8904    -0.7701 C.ar    
   9 C9             2.7994     4.0852    -0.1043 C.ar    
  10 C10            1.5693     4.2935     0.5251 C.ar    
  11 C11            0.6118     3.3054     0.5015 C.ar    
  12 C12           -1.4815     1.3033    -0.1073 C.2     
  13 N13           -2.0685     0.1434     0.0109 N.2     
  14 C14           -1.1297    -0.8264     0.0922 C.2     
  15 C15            3.0524     0.8645    -2.8682 C.ar    
  16 C16            3.8325    -0.1582    -3.4075 C.ar    
  17 C17            4.4719     0.0298    -4.6157 C.ar    
  18 C18            4.3408     1.2298    -5.2916 C.ar    
  19 C19            3.5688     2.2481    -4.7615 C.ar    
  20 C20            2.9191     2.0697    -3.5573 C.ar    
  21 O21           -0.6520    -3.2785    -0.2970 O.3     
  22 C22           -1.2133    -4.4372     0.0777 C.2     
  23 N23           -2.2536    -4.1847     0.8208 N.2     
  24 C24           -2.3880    -2.8550     0.9431 C.2     
  25 C25           -1.3809    -2.2760     0.2404 C.2     
  26 C26            3.8074     5.1014    -0.0626 C.1     
  27 C27            4.6338     5.9346    -0.0284 C.1     
  28 H28            2.0282    -0.5272     0.8518 H       
  29 H29            1.3167    -1.9732     0.0862 H       
  30 H30            3.9938     2.7325    -1.2579 H       
  31 H31            1.3707     5.2278     1.0292 H       
  32 H32           -0.3374     3.4693     0.9900 H       
  33 H33           -1.9823     2.2555    -0.2017 H       
  34 H34            3.9361    -1.0951    -2.8805 H       
  35 H35            5.0762    -0.7613    -5.0344 H       
  36 H36            4.8436     1.3723    -6.2368 H       
  37 H37            3.4708     3.1829    -5.2934 H       
  38 H38            2.3125     2.8635    -3.1470 H       
  39 H39           -0.8604    -5.4213    -0.1933 H       
  40 H40           -3.1570    -2.3395     1.4992 H       
  41 H41            5.3729     6.6798     0.0022 H       
@<TRIPOS>BOND
   1    1    2 1
   2    1    7 1
   3    1   12 1
   4    2    3 1
   5    2   14 2
   6    3    4 1
   7    3   28 1
   8    3   29 1
   9    4    5 2
  10    5    6 1
  11    5   15 1
  12    6    7 ar
  13    6    8 ar
  14    7   11 ar
  15    8    9 ar
  16    8   30 1
  17    9   10 ar
  18    9   26 1
  19   10   11 ar
  20   10   31 1
  21   11   32 1
  22   12   13 2
  23   12   33 1
  24   13   14 1
  25   14   25 1
  26   15   16 ar
  27   15   20 ar
  28   16   17 ar
  29   16   34 1
  30   17   18 ar
  31   17   35 1
  32   18   19 ar
  33   18   36 1
  34   19   20 ar
  35   19   37 1
  36   20   38 1
  37   21   22 1
  38   21   25 1
  39   22   23 2
  40   22   39 1
  41   23   24 1
  42   24   25 2
  43   24   40 1
  44   26   27 3
  45   27   41 1

#	End of record

