#	Name: ASD06020203
#	Creating user name:	WinNT
#	Creation time:	15. 06. 2019 21:04

#	Modifying user name:	WinNT
#	Modification time:	15. 06. 2019 21:04

#	Program:	/corina/corina34_cracker 3.40 0067  02.08.2006

@<TRIPOS>MOLECULE
ASD06020203
  34   38    0    0    0
SMALL
NO_CHARGES


@<TRIPOS>ATOM
   1 C1            -0.3186     1.6957     1.0918 C.3     
   2 C2            -0.4361     0.2686     1.5809 C.2     
   3 N3             0.5991    -0.4426     1.1172 N.am    
   4 C4             1.4564     0.2542     0.3610 C.2     
   5 C5             0.9777     1.6858     0.2563 C.3     
   6 C6            -0.3699     1.9605    -0.4142 C.3     
   7 O7            -1.3263    -0.1624     2.2818 O.2     
   8 O8             2.4578    -0.1910    -0.1570 O.2     
   9 C9             0.7706    -1.8007     1.3993 C.ar    
  10 C10            1.4943    -2.1895     2.5297 C.ar    
  11 C11            1.6624    -3.5520     2.8073 C.ar    
  12 C12            1.0747    -4.4712     1.9027 C.ar    
  13 C13            0.3869    -4.0052     0.8261 C.ar    
  14 N14            0.2431    -2.7096     0.5989 N.ar    
  15 S15            2.3081    -1.2640     3.7862 S.3     
  16 C16            2.8044    -2.7549     4.5766 C.2     
  17 N17            2.3714    -3.7776     3.9141 N.2     
  18 C18            3.6017    -2.8283     5.8191 C.ar    
  19 C19            3.9414    -4.0692     6.3626 C.ar    
  20 C20            4.6869    -4.1301     7.5235 C.ar    
  21 C21            5.0970    -2.9659     8.1479 C.ar    
  22 C22            4.7640    -1.7333     7.6156 C.ar    
  23 C23            4.0238    -1.6571     6.4521 C.ar    
  24 Cl24           3.6130    -0.1093     5.7820 Cl      
  25 Cl25           3.4272    -5.5316     5.5810 Cl      
  26 H26           -0.5708     2.4941     1.7897 H       
  27 H27            1.7235     2.4774     0.3292 H       
  28 H28           -0.7845     1.1768    -1.0483 H       
  29 H29           -0.5710     2.9816    -0.7382 H       
  30 H30            1.1727    -5.5341     2.0670 H       
  31 H31           -0.0580    -4.7115     0.1408 H       
  32 H32            4.9500    -5.0890     7.9451 H       
  33 H33            5.6799    -3.0195     9.0555 H       
  34 H34            5.0873    -0.8285     8.1086 H       
@<TRIPOS>BOND
   1    1    2 1
   2    1    6 1
   3    1    5 1
   4    1   26 1
   5    2    3 am
   6    2    7 2
   7    3    4 am
   8    3    9 1
   9    4    5 1
  10    4    8 2
  11    5    6 1
  12    5   27 1
  13    6   28 1
  14    6   29 1
  15    9   10 ar
  16    9   14 ar
  17   10   11 ar
  18   10   15 1
  19   11   12 ar
  20   11   17 1
  21   12   13 ar
  22   12   30 1
  23   13   14 ar
  24   13   31 1
  25   15   16 1
  26   16   17 2
  27   16   18 1
  28   18   19 ar
  29   18   23 ar
  30   19   20 ar
  31   19   25 1
  32   20   21 ar
  33   20   32 1
  34   21   22 ar
  35   21   33 1
  36   22   23 ar
  37   22   34 1
  38   23   24 1

#	End of record

