#	Name: ASD00740004
#	Creating user name:	WinNT
#	Creation time:	15. 06. 2019 18:37

#	Modifying user name:	WinNT
#	Modification time:	15. 06. 2019 18:37

#	Program:	/corina/corina34_cracker 3.40 0067  02.08.2006

@<TRIPOS>MOLECULE
ASD00740004
  55   58    0    0    0
SMALL
NO_CHARGES


@<TRIPOS>ATOM
   1 N1            -0.0162     1.3436     0.0094 N.am    
   2 C2            -0.1513     0.0028     0.0355 C.2     
   3 N3            -1.3751    -0.5490     0.1548 N.am    
   4 C4            -1.5149    -1.9363     0.1818 C.2     
   5 N5            -2.6824    -2.6259     0.2972 N.pl3   
   6 N6            -2.3753    -3.9925     0.2816 N.2     
   7 C7            -1.0787    -4.1235     0.1620 C.2     
   8 C8            -0.5091    -2.8490     0.0916 C.2     
   9 C9            -0.3270    -5.4284     0.1049 C.3     
  10 C10            0.3779    -5.6698     1.4412 C.3     
  11 C11           -1.3079    -6.5705    -0.1679 C.3     
  12 C12            0.7121    -5.3697    -1.0166 C.3     
  13 O13            0.8310    -0.7089    -0.0485 O.2     
  14 C14           -3.9632    -2.0683     0.4119 C.ar    
  15 C15            1.2568     1.9170     0.0066 C.ar    
  16 C16            2.2910     1.3169     0.6913 C.ar    
  17 C17            3.5638     1.8807     0.6952 C.ar    
  18 C18            3.8224     3.0369     0.0247 C.ar    
  19 C19            2.7951     3.6804    -0.6866 C.ar    
  20 C20            1.4971     3.1135    -0.7024 C.ar    
  21 C21           -4.1456    -0.8826     1.1104 C.ar    
  22 C22           -5.4090    -0.3353     1.2214 C.ar    
  23 C23           -6.4914    -0.9672     0.6377 C.ar    
  24 C24           -6.3129    -2.1486    -0.0589 C.ar    
  25 C25           -5.0514    -2.6979    -0.1777 C.ar    
  26 C26            3.0330     4.8749    -1.3885 C.ar    
  27 C27            2.0153     5.4714    -2.0672 C.ar    
  28 C28            0.7374     4.9159    -2.0773 C.ar    
  29 C29            0.4723     3.7568    -1.4138 C.ar    
  30 N30           -7.4743    -2.8223    -0.6819 N.pl3   
  31 O31           -8.5865    -2.3361    -0.5811 O.2     
  32 O32           -7.3178    -3.8628    -1.2955 O.2     
  33 H33           -0.8034     1.9100    -0.0114 H       
  34 H34           -2.1587     0.0188     0.2218 H       
  35 H35            0.5430    -2.6276    -0.0104 H       
  36 H36           -0.3623    -5.7116     2.2401 H       
  37 H37            0.9216    -6.6136     1.3998 H       
  38 H38            1.0767    -4.8562     1.6355 H       
  39 H39           -1.8101    -6.3985    -1.1199 H       
  40 H40           -0.7642    -7.5143    -0.2093 H       
  41 H41           -2.0482    -6.6123     0.6311 H       
  42 H42            1.4109    -4.5561    -0.8223 H       
  43 H43            1.2558    -6.3135    -1.0579 H       
  44 H44            0.2098    -5.1977    -1.9686 H       
  45 H45            2.1121     0.3989     1.2313 H       
  46 H46            4.3590     1.3931     1.2395 H       
  47 H47            4.8162     3.4595     0.0396 H       
  48 H48           -3.3005    -0.3887     1.5669 H       
  49 H49           -5.5516     0.5870     1.7650 H       
  50 H50           -7.4783    -0.5376     0.7261 H       
  51 H51           -4.9126    -3.6203    -0.7221 H       
  52 H52            4.0183     5.3171    -1.3888 H       
  53 H53            2.2007     6.3890    -2.6057 H       
  54 H54           -0.0532     5.4094    -2.6231 H       
  55 H55           -0.5227     3.3373    -1.4305 H       
@<TRIPOS>BOND
   1    1    2 am
   2    1   15 1
   3    1   33 1
   4    2    3 am
   5    2   13 2
   6    3    4 1
   7    3   34 1
   8    4    5 1
   9    4    8 2
  10    5    6 1
  11    5   14 1
  12    6    7 2
  13    7    8 1
  14    7    9 1
  15    8   35 1
  16    9   10 1
  17    9   11 1
  18    9   12 1
  19   10   36 1
  20   10   37 1
  21   10   38 1
  22   11   39 1
  23   11   40 1
  24   11   41 1
  25   12   42 1
  26   12   43 1
  27   12   44 1
  28   14   21 ar
  29   14   25 ar
  30   15   16 ar
  31   15   20 ar
  32   16   17 ar
  33   16   45 1
  34   17   18 ar
  35   17   46 1
  36   18   19 ar
  37   18   47 1
  38   19   20 ar
  39   19   26 ar
  40   20   29 ar
  41   21   22 ar
  42   21   48 1
  43   22   23 ar
  44   22   49 1
  45   23   24 ar
  46   23   50 1
  47   24   25 ar
  48   24   30 1
  49   25   51 1
  50   26   27 ar
  51   26   52 1
  52   27   28 ar
  53   27   53 1
  54   28   29 ar
  55   28   54 1
  56   29   55 1
  57   30   31 2
  58   30   32 2

#	End of record

