#	Name: ASD02500134
#	Creating user name:	WinNT
#	Creation time:	15. 06. 2019 20:22

#	Modifying user name:	WinNT
#	Modification time:	15. 06. 2019 20:22

#	Program:	/corina/corina34_cracker 3.40 0067  02.08.2006

@<TRIPOS>MOLECULE
ASD02500134
  60   64    0    0    0
SMALL
NO_CHARGES


@<TRIPOS>ATOM
   1 N1            -3.4594     5.3352     0.2892 N.ar    
   2 C2            -4.5627     5.9243    -0.1031 C.ar    
   3 C3            -5.7854     5.6801     0.5187 C.ar    
   4 C4            -5.8550     4.8063     1.5661 C.ar    
   5 C5            -4.6682     4.1751     1.9844 C.ar    
   6 C6            -4.6615     3.2656     3.0538 C.ar    
   7 C7            -3.4926     2.6761     3.4285 C.ar    
   8 C8            -2.3020     2.9639     2.7648 C.ar    
   9 C9            -2.2722     3.8406     1.7242 C.ar    
  10 C10           -3.4583     4.4694     1.3078 C.ar    
  11 S11           -0.7523     4.1868     0.9027 S.o2    
  12 O12           -0.6516     5.6021     0.8248 O.2     
  13 O13            0.2329     3.3704     1.5209 O.2     
  14 N14           -0.9013     3.6422    -0.6540 N.am    
  15 C15           -1.1247     2.2920    -0.8998 C.ar    
  16 C16           -2.1127     1.9041    -1.8007 C.ar    
  17 C17           -2.3362     0.5687    -2.0461 C.ar    
  18 C18           -1.5700    -0.3989    -1.3897 C.ar    
  19 C19           -0.5787    -0.0063    -0.4857 C.ar    
  20 C20           -0.3561     1.3309    -0.2488 C.ar    
  21 C21           -1.8074    -1.8314    -1.6502 C.2     
  22 O22           -0.8660    -2.5916    -1.7709 O.2     
  23 N23           -3.0676    -2.2976    -1.7543 N.am    
  24 C24           -3.3215    -3.7346    -1.9287 C.3     
  25 C25           -4.2693    -4.2032    -0.8177 C.3     
  26 N26           -5.4143    -3.2838    -0.7583 N.am    
  27 C27           -5.1604    -1.8468    -0.5839 C.3     
  28 C28           -4.2128    -1.3788    -1.6893 C.3     
  29 C29           -6.6745    -3.7500    -0.8625 C.2     
  30 C30           -6.9119    -5.1817    -1.1335 C.ar    
  31 C31           -7.6969    -5.5693    -2.2244 C.ar    
  32 C32           -7.9152    -6.9114    -2.4724 C.ar    
  33 C33           -7.3595    -7.8702    -1.6439 C.ar    
  34 C34           -6.5802    -7.4919    -0.5599 C.ar    
  35 C35           -6.3490    -6.1551    -0.3051 C.ar    
  36 O36           -7.6159    -2.9915    -0.7332 O.2     
  37 F37           -6.0416    -8.4342     0.2444 F       
  38 F38           -8.2408    -4.6340    -3.0335 F       
  39 Cl39          -7.6388    -9.5538    -1.9618 Cl      
  40 H40           -4.5228     6.6178    -0.9302 H       
  41 H41           -6.6773     6.1815     0.1730 H       
  42 H42           -6.7942     4.6055     2.0599 H       
  43 H43           -5.5781     3.0351     3.5764 H       
  44 H44           -3.4884     1.9765     4.2513 H       
  45 H45           -1.3878     2.4838     3.0814 H       
  46 H46           -0.8327     4.2651    -1.3944 H       
  47 H47           -2.7046     2.6521    -2.3073 H       
  48 H48           -3.1031     0.2684    -2.7449 H       
  49 H49            0.0147    -0.7515     0.0233 H       
  50 H50            0.4128     1.6351     0.4459 H       
  51 H51           -3.7827    -3.9093    -2.9008 H       
  52 H52           -2.3817    -4.2828    -1.8632 H       
  53 H53           -4.6207    -5.2113    -1.0377 H       
  54 H54           -3.7447    -4.1964     0.1377 H       
  55 H55           -6.1002    -1.2986    -0.6495 H       
  56 H56           -4.6992    -1.6721     0.3882 H       
  57 H57           -3.8614    -0.3715    -1.4657 H       
  58 H58           -4.7389    -1.3819    -2.6439 H       
  59 H59           -8.5211    -7.2123    -3.3143 H       
  60 H60           -5.7383    -5.8623     0.5362 H       
@<TRIPOS>BOND
   1    1    2 ar
   2    1   10 ar
   3    2    3 ar
   4    2   40 1
   5    3    4 ar
   6    3   41 1
   7    4    5 ar
   8    4   42 1
   9    5    6 ar
  10    5   10 ar
  11    6    7 ar
  12    6   43 1
  13    7    8 ar
  14    7   44 1
  15    8    9 ar
  16    8   45 1
  17    9   10 ar
  18    9   11 1
  19   11   12 2
  20   11   13 2
  21   11   14 am
  22   14   15 1
  23   14   46 1
  24   15   16 ar
  25   15   20 ar
  26   16   17 ar
  27   16   47 1
  28   17   18 ar
  29   17   48 1
  30   18   19 ar
  31   18   21 1
  32   19   20 ar
  33   19   49 1
  34   20   50 1
  35   21   22 2
  36   21   23 am
  37   23   24 1
  38   23   28 1
  39   24   25 1
  40   24   51 1
  41   24   52 1
  42   25   26 1
  43   25   53 1
  44   25   54 1
  45   26   27 1
  46   26   29 am
  47   27   28 1
  48   27   55 1
  49   27   56 1
  50   28   57 1
  51   28   58 1
  52   29   30 1
  53   29   36 2
  54   30   31 ar
  55   30   35 ar
  56   31   32 ar
  57   31   38 1
  58   32   33 ar
  59   32   59 1
  60   33   34 ar
  61   33   39 1
  62   34   35 ar
  63   34   37 1
  64   35   60 1

#	End of record

