#	Name: ASD01884966
#	Creating user name:	WinNT
#	Creation time:	15. 06. 2019 19:49

#	Modifying user name:	WinNT
#	Modification time:	15. 06. 2019 19:49

#	Program:	/corina/corina34_cracker 3.40 0067  02.08.2006

@<TRIPOS>MOLECULE
ASD01884966
  42   45    0    0    0
SMALL
NO_CHARGES


@<TRIPOS>ATOM
   1 C1            -0.0166     1.3746     0.0096 C.ar    
   2 C2             0.0021    -0.0041     0.0020 C.ar    
   3 C3            -1.1977    -0.7167     0.0096 C.ar    
   4 C4            -2.4129    -0.0321     0.0249 C.ar    
   5 C5            -2.4265     1.3465     0.0325 C.ar    
   6 C6            -1.2306     2.0547     0.0306 C.ar    
   7 C7            -1.1808    -2.1978     0.0010 C.2     
   8 C8            -1.6669    -2.9084     1.0840 C.2     
   9 C9            -0.6723    -2.9008    -1.1184 C.2     
  10 C10           -0.6586    -4.2467    -1.1246 C.2     
  11 N11           -1.1315    -4.9566    -0.0582 N.pl3   
  12 C12           -1.6376    -4.3137     1.0455 C.2     
  13 Cl13          -2.3027    -2.0778     2.4694 Cl      
  14 C14           -1.2388    -6.2882     0.2059 C.2     
  15 N15           -1.7708    -6.4127     1.3943 N.2     
  16 N16           -2.0114    -5.2541     1.8997 N.2     
  17 C17           -0.8211    -7.4135    -0.7054 C.3     
  18 Cl18           1.4751     2.2625     0.0001 Cl      
  19 C19            0.2431    -8.3834    -0.1881 C.3     
  20 C20           -1.2145    -8.8350    -0.2987 C.3     
  21 N21           -1.2473     3.4505     0.0387 N.pl3   
  22 C22           -2.5247     4.1677     0.0491 C.3     
  23 C23           -3.0239     4.2996     1.4894 C.3     
  24 C24           -2.3324     5.5608    -0.5535 C.3     
  25 H25            0.9443    -0.5319    -0.0102 H       
  26 H26           -3.3427    -0.5816     0.0305 H       
  27 H27           -3.3673     1.8766     0.0439 H       
  28 H28           -0.2944    -2.3550    -1.9702 H       
  29 H29           -0.2691    -4.7719    -1.9842 H       
  30 H30           -0.8129    -7.1782    -1.7697 H       
  31 H31            0.9512    -8.7865    -0.9122 H       
  32 H32            0.6412    -8.2076     0.8113 H       
  33 H33           -1.7755    -8.9563     0.6280 H       
  34 H34           -1.4655    -9.5352    -1.0954 H       
  35 H35           -0.4132     3.9456     0.0374 H       
  36 H36           -3.2566     3.6150    -0.5399 H       
  37 H37           -3.9743     4.8332     1.4971 H       
  38 H38           -3.1610     3.3071     1.9187 H       
  39 H39           -2.2921     4.8523     2.0784 H       
  40 H40           -1.9767     5.4669    -1.5796 H       
  41 H41           -3.2828     6.0945    -0.5458 H       
  42 H42           -1.6005     6.1136     0.0355 H       
@<TRIPOS>BOND
   1    1    2 ar
   2    1   18 1
   3    1    6 ar
   4    2    3 ar
   5    2   25 1
   6    3    4 ar
   7    3    7 1
   8    4    5 ar
   9    4   26 1
  10    5    6 ar
  11    5   27 1
  12    6   21 1
  13    7    8 2
  14    7    9 1
  15    8   13 1
  16    8   12 1
  17    9   10 2
  18    9   28 1
  19   10   11 1
  20   10   29 1
  21   11   12 1
  22   11   14 1
  23   12   16 2
  24   14   15 2
  25   14   17 1
  26   15   16 1
  27   17   19 1
  28   17   20 1
  29   17   30 1
  30   19   20 1
  31   19   31 1
  32   19   32 1
  33   20   33 1
  34   20   34 1
  35   21   22 1
  36   21   35 1
  37   22   23 1
  38   22   24 1
  39   22   36 1
  40   23   37 1
  41   23   38 1
  42   23   39 1
  43   24   40 1
  44   24   41 1
  45   24   42 1

#	End of record

