#	Name: ASD00840150
#	Creating user name:	WinNT
#	Creation time:	15. 06. 2019 18:37

#	Modifying user name:	WinNT
#	Modification time:	15. 06. 2019 18:37

#	Program:	/corina/corina34_cracker 3.40 0067  02.08.2006

@<TRIPOS>MOLECULE
ASD00840150
  56   59    0    0    0
SMALL
NO_CHARGES


@<TRIPOS>ATOM
   1 N1            -0.0161     1.3394     0.0094 N.am    
   2 C2             0.0021    -0.0041     0.0020 C.2     
   3 C3             1.4547    -0.4300    -0.0141 C.3     
   4 C4             2.2200     0.8734    -0.0144 C.ar    
   5 C5             3.5650     1.1687    -0.0261 C.ar    
   6 C6             3.9826     2.4887    -0.0234 C.ar    
   7 C7             3.0431     3.5079    -0.0090 C.ar    
   8 C8             1.6938     3.2122     0.0032 C.ar    
   9 C9             1.2685     1.8853     0.0001 C.ar    
  10 O10           -0.9638    -0.7377     0.0079 O.2     
  11 F11            3.4490     4.7965    -0.0063 F       
  12 C12            1.6035    -0.6897     2.4824 C.ar    
  13 C13            1.7827    -1.2346     1.2172 C.ar    
  14 C14            2.2660    -2.5261     1.1026 C.ar    
  15 C15            2.5544    -3.2306     2.2636 C.ar    
  16 C16            2.3520    -2.6262     3.4882 C.ar    
  17 N17            1.8898    -1.3926     3.5655 N.ar    
  18 O18            1.1357     0.5776     2.6082 O.3     
  19 C19            0.9732     1.0805     3.9359 C.3     
  20 C20            0.4405     2.5135     3.8768 C.3     
  21 S21           -1.4033     2.2438     0.0211 S.o2    
  22 O22           -1.0597     3.5126    -0.5187 O.2     
  23 O23           -2.4248     1.4188    -0.5223 O.2     
  24 C24           -1.8316     2.5201     1.7078 C.ar    
  25 C25           -2.1880     1.4502     2.5169 C.ar    
  26 C26           -2.5248     1.6682     3.8437 C.ar    
  27 C27           -2.5048     2.9552     4.3592 C.ar    
  28 C28           -2.1479     4.0215     3.5462 C.ar    
  29 C29           -1.8071     3.8008     2.2252 C.ar    
  30 O30           -2.8350     3.1722     5.6595 O.3     
  31 C31           -2.7926     4.5233     6.1228 C.3     
  32 O32           -2.2070     0.1900     2.0087 O.3     
  33 C33           -2.5834    -0.8628     2.8986 C.3     
  34 Cl34           5.6770     2.8662    -0.0374 Cl      
  35 N35            1.7514    -1.2013    -1.2286 N.3     
  36 H36            4.2934     0.3714    -0.0369 H       
  37 H37            0.9670     4.0110     0.0148 H       
  38 H38            2.4151    -2.9760     0.1322 H       
  39 H39            2.9327    -4.2407     2.2094 H       
  40 H40            2.5745    -3.1700     4.3944 H       
  41 H41            0.2667     0.4523     4.4784 H       
  42 H42            1.9353     1.0713     4.4481 H       
  43 H43            0.3166     2.8971     4.8895 H       
  44 H44            1.1470     3.1417     3.3343 H       
  45 H45           -0.5216     2.5227     3.3646 H       
  46 H46           -2.8027     0.8370     4.4748 H       
  47 H47           -2.1322     5.0241     3.9473 H       
  48 H48           -1.5253     4.6315     1.5952 H       
  49 H49           -3.0776     4.5559     7.1744 H       
  50 H50           -1.7821     4.9153     6.0079 H       
  51 H51           -3.4859     5.1293     5.5396 H       
  52 H52           -1.8878    -0.8957     3.7372 H       
  53 H53           -3.5920    -0.6815     3.2700 H       
  54 H54           -2.5573    -1.8143     2.3675 H       
  55 H55            1.1967    -2.0433    -1.2668 H       
  56 H56            1.6142    -0.6402    -2.0559 H       
@<TRIPOS>BOND
   1    1    2 am
   2    1    9 1
   3    1   21 am
   4    2    3 1
   5    2   10 2
   6    3    4 1
   7    3   13 1
   8    3   35 1
   9    4    5 ar
  10    4    9 ar
  11    5    6 ar
  12    5   36 1
  13    6    7 ar
  14    6   34 1
  15    7    8 ar
  16    7   11 1
  17    8    9 ar
  18    8   37 1
  19   12   13 ar
  20   12   17 ar
  21   12   18 1
  22   13   14 ar
  23   14   15 ar
  24   14   38 1
  25   15   16 ar
  26   15   39 1
  27   16   17 ar
  28   16   40 1
  29   18   19 1
  30   19   20 1
  31   19   41 1
  32   19   42 1
  33   20   43 1
  34   20   44 1
  35   20   45 1
  36   21   22 2
  37   21   23 2
  38   21   24 1
  39   24   25 ar
  40   24   29 ar
  41   25   26 ar
  42   25   32 1
  43   26   27 ar
  44   26   46 1
  45   27   28 ar
  46   27   30 1
  47   28   29 ar
  48   28   47 1
  49   29   48 1
  50   30   31 1
  51   31   49 1
  52   31   50 1
  53   31   51 1
  54   32   33 1
  55   33   52 1
  56   33   53 1
  57   33   54 1
  58   35   55 1
  59   35   56 1

#	End of record

