#	Name: ASD03331585
#	Creating user name:	WinNT
#	Creation time:	15. 06. 2019 20:39

#	Modifying user name:	WinNT
#	Modification time:	15. 06. 2019 20:39

#	Program:	/corina/corina34_cracker 3.40 0067  02.08.2006

@<TRIPOS>MOLECULE
ASD03331585
  55   57    0    0    0
SMALL
NO_CHARGES


@<TRIPOS>ATOM
   1 C1            -0.4660     0.7374     1.5412 C.ar    
   2 C2            -0.3144    -0.6724     1.1185 C.2     
   3 N3            -1.3299    -1.5721     0.9674 N.pl3   
   4 C4            -0.7764    -2.7492     0.5939 C.2     
   5 C5             0.5676    -2.5502     0.4938 C.2     
   6 N6             0.8180    -1.2646     0.8209 N.2     
   7 C7             1.5681    -3.5565     0.0953 C.2     
   8 O8             1.2163    -4.6873    -0.1813 O.2     
   9 N9             2.8728    -3.2234     0.0373 N.am    
  10 C10            3.8672    -4.2236    -0.3588 C.3     
  11 C11            5.2096    -3.8528     0.2170 C.2     
  12 C12           -2.7619    -1.3160     1.1514 C.3     
  13 C13           -3.4621    -2.6203     1.5423 C.3     
  14 C14           -3.8366    -3.4027     0.2851 C.3     
  15 O15           -2.6744    -3.7607    -0.4534 O.3     
  16 C16           -1.5279    -4.0334     0.3595 C.3     
  17 C17            3.9626    -4.2713    -1.8851 C.3     
  18 C18            4.3321    -2.8850    -2.4166 C.3     
  19 C19            5.0375    -5.2789    -2.2977 C.3     
  20 C20            2.6134    -4.6977    -2.4673 C.3     
  21 C21            0.3411     1.2769     2.5500 C.ar    
  22 C22            0.1653     2.5982     2.9126 C.ar    
  23 N23           -0.7468     3.3463     2.3227 N.ar    
  24 C24           -1.5274     2.8768     1.3683 C.ar    
  25 C25           -1.4162     1.5702     0.9400 C.ar    
  26 N26            6.1722    -4.7881     0.3388 N.am    
  27 O27            5.4236    -2.7126     0.5708 O.2     
  28 C28            7.4415    -4.4526     0.9888 C.3     
  29 Cl29           1.5437     0.3003     3.3334 Cl      
  30 H30            3.1533    -2.3214     0.2579 H       
  31 H31            3.5682    -5.2020     0.0173 H       
  32 H32           -2.9011    -0.5774     1.9408 H       
  33 H33           -3.1868    -0.9396     0.2208 H       
  34 H34           -2.7920    -3.2212     2.1570 H       
  35 H35           -4.3646    -2.3913     2.1090 H       
  36 H36           -4.3718    -4.3078     0.5723 H       
  37 H37           -4.4836    -2.7878    -0.3404 H       
  38 H38           -0.8806    -4.7469    -0.1503 H       
  39 H39           -1.8487    -4.4479     1.3152 H       
  40 H40            5.2933    -2.5812    -2.0018 H       
  41 H41            4.4001    -2.9190    -3.5039 H       
  42 H42            3.5664    -2.1672    -2.1226 H       
  43 H43            4.7543    -6.2736    -1.9536 H       
  44 H44            5.1334    -5.2837    -3.3834 H       
  45 H45            5.9905    -4.9972    -1.8500 H       
  46 H46            1.8477    -3.9799    -2.1733 H       
  47 H47            2.6814    -4.7317    -3.5546 H       
  48 H48            2.3502    -5.6853    -2.0886 H       
  49 H49            0.7827     3.0242     3.6896 H       
  50 H50           -2.2612     3.5256     0.9134 H       
  51 H51           -2.0589     1.1933     0.1581 H       
  52 H52            6.0246    -5.6835    -0.0039 H       
  53 H53            8.0899    -5.3288     0.9940 H       
  54 H54            7.9273    -3.6445     0.4420 H       
  55 H55            7.2519    -4.1349     2.0141 H       
@<TRIPOS>BOND
   1    1    2 1
   2    1   21 ar
   3    1   25 ar
   4    2    3 1
   5    2    6 2
   6    3    4 1
   7    3   12 1
   8    4    5 2
   9    4   16 1
  10    5    6 1
  11    5    7 1
  12    7    8 2
  13    7    9 am
  14    9   10 1
  15    9   30 1
  16   10   11 1
  17   10   17 1
  18   10   31 1
  19   11   26 am
  20   11   27 2
  21   12   13 1
  22   12   32 1
  23   12   33 1
  24   13   14 1
  25   13   34 1
  26   13   35 1
  27   14   15 1
  28   14   36 1
  29   14   37 1
  30   15   16 1
  31   16   38 1
  32   16   39 1
  33   17   18 1
  34   17   19 1
  35   17   20 1
  36   18   40 1
  37   18   41 1
  38   18   42 1
  39   19   43 1
  40   19   44 1
  41   19   45 1
  42   20   46 1
  43   20   47 1
  44   20   48 1
  45   21   22 ar
  46   21   29 1
  47   22   23 ar
  48   22   49 1
  49   23   24 ar
  50   24   25 ar
  51   24   50 1
  52   25   51 1
  53   26   28 1
  54   26   52 1
  55   28   53 1
  56   28   54 1
  57   28   55 1

#	End of record

