#	Name: ASD03320241
#	Creating user name:	WinNT
#	Creation time:	15. 06. 2019 20:36

#	Modifying user name:	WinNT
#	Modification time:	15. 06. 2019 20:36

#	Program:	/corina/corina34_cracker 3.40 0067  02.08.2006

@<TRIPOS>MOLECULE
ASD03320241
  36   37    0    0    0
SMALL
NO_CHARGES


@<TRIPOS>ATOM
   1 C1            -0.0167     1.3792     0.0096 C.ar    
   2 C2             0.0021    -0.0041     0.0020 C.ar    
   3 C3             1.2310    -0.6500    -0.0132 C.ar    
   4 C4             2.3896     0.1009    -0.0202 C.ar    
   5 N5             2.3415     1.4194    -0.0122 N.ar    
   6 C6             1.1894     2.0721     0.0018 C.ar    
   7 N7             1.1852     3.4621     0.0093 N.3     
   8 C8             2.5545     3.9925    -0.0009 C.3     
   9 C9             2.5146     5.5145     0.1544 C.3     
  10 C10            1.7046     6.1190    -0.9958 C.3     
  11 C11            0.2980     5.5141    -0.9921 C.3     
  12 C12            0.4021     3.9921    -1.1141 C.3     
  13 C13            1.2995    -2.1554    -0.0214 C.3     
  14 C14            1.6111     7.6122    -0.8156 C.2     
  15 O15            2.1400     8.1422     0.1385 O.2     
  16 N16            0.9399     8.3588    -1.7148 N.am    
  17 C17            0.8490     9.8104    -1.5397 C.3     
  18 F18            1.3079    -2.6146    -1.3429 F       
  19 F19            2.4682    -2.5725     0.6246 F       
  20 F20            0.1861    -2.6766     0.6463 F       
  21 H21           -0.9550     1.9138     0.0170 H       
  22 H22           -0.9185    -0.5688     0.0081 H       
  23 H23            3.3476    -0.3975    -0.0320 H       
  24 H24            3.1185     3.5579     0.8244 H       
  25 H25            3.0362     3.7363    -0.9445 H       
  26 H26            2.0455     5.7712     1.1042 H       
  27 H27            3.5303     5.9094     0.1311 H       
  28 H28            2.1947     5.8954    -1.9434 H       
  29 H29           -0.2061     5.7708    -0.0603 H       
  30 H30           -0.2701     5.9087    -1.8345 H       
  31 H31            0.8939     3.7359    -2.0525 H       
  32 H32           -0.5972     3.5572    -1.0974 H       
  33 H33            0.5169     7.9349    -2.4779 H       
  34 H34            0.3562    10.0321    -0.5930 H       
  35 H35            1.8510    10.2395    -1.5368 H       
  36 H36            0.2722    10.2399    -2.3588 H       
@<TRIPOS>BOND
   1    1    2 ar
   2    1    6 ar
   3    1   21 1
   4    2    3 ar
   5    2   22 1
   6    3    4 ar
   7    3   13 1
   8    4    5 ar
   9    4   23 1
  10    5    6 ar
  11    6    7 1
  12    7    8 1
  13    7   12 1
  14    8    9 1
  15    8   24 1
  16    8   25 1
  17    9   10 1
  18    9   26 1
  19    9   27 1
  20   10   11 1
  21   10   14 1
  22   10   28 1
  23   11   12 1
  24   11   29 1
  25   11   30 1
  26   12   31 1
  27   12   32 1
  28   13   18 1
  29   13   19 1
  30   13   20 1
  31   14   15 2
  32   14   16 am
  33   16   17 1
  34   16   33 1
  35   17   34 1
  36   17   35 1
  37   17   36 1

#	End of record

