#	Name: ASD08710089
#	Creating user name:	WinNT
#	Creation time:	15. 06. 2019 21:19

#	Modifying user name:	WinNT
#	Modification time:	15. 06. 2019 21:19

#	Program:	/corina/corina34_cracker 3.40 0067  02.08.2006

@<TRIPOS>MOLECULE
ASD08710089
  50   52    0    0    0
SMALL
NO_CHARGES


@<TRIPOS>ATOM
   1 N1            -0.1506     1.5092    -0.3538 N.am    
   2 C2            -0.0286     0.0481    -0.4556 C.3     
   3 C3             0.2419    -0.3202    -1.9196 C.3     
   4 N4             1.3400     0.5187    -2.4197 N.am    
   5 C5             1.2181     1.9798    -2.3179 C.3     
   6 C6             0.9475     2.3482    -0.8539 C.3     
   7 C7            -1.2522     2.0698     0.1835 C.2     
   8 O8            -2.2028     1.3745     0.4844 O.2     
   9 C9            -0.1355     4.2533     0.6490 C.ar    
  10 C10           -1.3044     3.5303     0.4069 C.ar    
  11 C11           -2.5271     4.2113     0.3788 C.ar    
  12 C12           -2.5214     5.5785     0.5935 C.ar    
  13 C13           -1.3196     6.2222     0.8267 C.ar    
  14 N14           -0.1818     5.5541     0.8475 N.ar    
  15 C15           -1.3093     7.7108     1.0609 C.3     
  16 C16           -1.3303    -0.6093     0.0072 C.3     
  17 S17            2.6909    -0.1699    -3.0856 S.o2    
  18 O18            3.7349     0.7849    -2.9528 O.2     
  19 O19            2.7708    -1.4872    -2.5589 O.2     
  20 C20            2.3909    -0.3421    -4.8133 C.ar    
  21 C21            2.7355     0.6795    -5.6788 C.ar    
  22 C22            2.5013     0.5469    -7.0338 C.ar    
  23 C23            1.9198    -0.6126    -7.5258 C.ar    
  24 C24            1.5750    -1.6363    -6.6553 C.ar    
  25 C25            1.8164    -1.5010    -5.3018 C.ar    
  26 O26            1.6880    -0.7453    -8.8583 O.3     
  27 C27            1.0865    -1.9662    -9.2938 C.3     
  28 F28            1.9108    -3.0419    -8.9467 F       
  29 F29           -0.1608    -2.1169    -8.6784 F       
  30 H30            0.7983    -0.2941     0.1666 H       
  31 H31            0.5246    -1.3708    -1.9862 H       
  32 H32           -0.6545    -0.1417    -2.5134 H       
  33 H33            2.1454     2.4481    -2.6476 H       
  34 H34            0.3911     2.3221    -2.9401 H       
  35 H35            0.6648     3.3987    -0.7873 H       
  36 H36            1.8440     2.1696    -0.2601 H       
  37 H37            0.8147     3.7408     0.6780 H       
  38 H38           -3.4510     3.6835     0.1940 H       
  39 H39           -3.4456     6.1371     0.5787 H       
  40 H40           -1.4181     7.9117     2.1267 H       
  41 H41           -0.3665     8.1278     0.7070 H       
  42 H42           -2.1359     8.1697     0.5185 H       
  43 H43           -2.1578    -0.2453    -0.6018 H       
  44 H44           -1.2490    -1.6910    -0.0995 H       
  45 H45           -1.5116    -0.3599     1.0527 H       
  46 H46            3.1878     1.5821    -5.2952 H       
  47 H47            2.7703     1.3453    -7.7095 H       
  48 H48            1.1222    -2.5399    -7.0359 H       
  49 H49            1.5525    -2.2996    -4.6242 H       
  50 H50            0.9572    -1.9418   -10.3758 H       
@<TRIPOS>BOND
   1    1    2 1
   2    1    6 1
   3    1    7 am
   4    2    3 1
   5    2   16 1
   6    2   30 1
   7    3    4 1
   8    3   31 1
   9    3   32 1
  10    4    5 1
  11    4   17 am
  12    5    6 1
  13    5   33 1
  14    5   34 1
  15    6   35 1
  16    6   36 1
  17    7    8 2
  18    7   10 1
  19    9   10 ar
  20    9   14 ar
  21    9   37 1
  22   10   11 ar
  23   11   12 ar
  24   11   38 1
  25   12   13 ar
  26   12   39 1
  27   13   14 ar
  28   13   15 1
  29   15   40 1
  30   15   41 1
  31   15   42 1
  32   16   43 1
  33   16   44 1
  34   16   45 1
  35   17   18 2
  36   17   19 2
  37   17   20 1
  38   20   21 ar
  39   20   25 ar
  40   21   22 ar
  41   21   46 1
  42   22   23 ar
  43   22   47 1
  44   23   24 ar
  45   23   26 1
  46   24   25 ar
  47   24   48 1
  48   25   49 1
  49   26   27 1
  50   27   28 1
  51   27   29 1
  52   27   50 1

#	End of record

