#	Name: ASD04570042
#	Creating user name:	WinNT
#	Creation time:	15. 06. 2019 20:49

#	Modifying user name:	WinNT
#	Modification time:	15. 06. 2019 20:49

#	Program:	/corina/corina34_cracker 3.40 0067  02.08.2006

@<TRIPOS>MOLECULE
ASD04570042
 344  348    0    0    0
SMALL
NO_CHARGES


@<TRIPOS>ATOM
   1 C1             8.0507   -13.4992    -0.3067 C.3     
   2 C2             7.5476   -14.8761    -0.7449 C.3     
   3 C3             6.0299   -14.9457    -0.5645 C.3     
   4 C4             5.5268   -16.3226    -1.0027 C.3     
   5 C5             4.0091   -16.3922    -0.8223 C.3     
   6 C6             3.5060   -17.7691    -1.2605 C.3     
   7 C7             1.9883   -17.8387    -1.0801 C.3     
   8 C8             1.4852   -19.2155    -1.5182 C.3     
   9 C9            -0.0325   -19.2851    -1.3379 C.3     
  10 C10           -0.5356   -20.6620    -1.7760 C.3     
  11 C11           -2.0533   -20.7316    -1.5956 C.3     
  12 C12           -2.5564   -22.1085    -2.0338 C.3     
  13 C13           -4.0741   -22.1781    -1.8534 C.3     
  14 C14           -4.5772   -23.5550    -2.2916 C.3     
  15 C15           -6.0721   -23.6235    -2.1139 C.2     
  16 N16           -6.7383   -24.7495    -2.4377 N.am    
  17 O17           -6.6757   -22.6654    -1.6796 O.2     
  18 C18           -8.1916   -24.8161    -2.2650 C.3     
  19 C19           -8.6871   -26.1723    -2.6965 C.2     
  20 N20          -10.0010   -26.4637    -2.6254 N.am    
  21 O21           -7.9035   -27.0015    -3.1079 O.2     
  22 C22          -10.4827   -27.7821    -3.0450 C.3     
  23 C23          -11.9777   -27.8506    -2.8673 C.2     
  24 N24          -12.6438   -28.9766    -3.1910 N.am    
  25 O25          -12.5813   -26.8925    -2.4330 O.2     
  26 C26          -14.0971   -29.0432    -3.0183 C.3     
  27 C27          -14.6687   -30.0689    -3.9629 C.2     
  28 O28          -13.9345   -30.6836    -4.7072 O.2     
  29 N29          -15.9959   -30.3030    -3.9807 N.am    
  30 C30          -14.4217   -29.4405    -1.5769 C.3     
  31 C31          -13.9582   -28.3549    -0.6401 C.ar    
  32 C32          -14.8136   -27.3219    -0.3038 C.ar    
  33 C33          -16.5516   -31.3000    -4.8990 C.3     
  34 C34          -16.4639   -32.6872    -4.2596 C.3     
  35 C35          -17.9936   -30.9697    -5.1865 C.2     
  36 O36          -18.5066   -29.9971    -4.6747 O.2     
  37 N37          -18.7131   -31.7550    -6.0123 N.am    
  38 C38          -14.9945   -33.0750    -4.0820 C.3     
  39 C39          -14.9081   -34.4413    -3.4522 C.2     
  40 N40          -13.7042   -34.9919    -3.1994 N.am    
  41 C41          -20.1149   -31.4338    -6.2918 C.3     
  42 C42          -20.1875   -30.4176    -7.4333 C.3     
  43 C43          -20.8482   -32.6889    -6.6892 C.2     
  44 O44          -20.2580   -33.7475    -6.7345 O.2     
  45 N45          -22.1599   -32.6351    -6.9942 N.am    
  46 C46          -22.8728   -33.8553    -7.3805 C.3     
  47 C47          -22.6847   -34.1032    -8.8786 C.3     
  48 C48          -24.3406   -33.6967    -7.0780 C.2     
  49 C49          -21.2094   -34.3878    -9.1671 C.3     
  50 C50          -21.0213   -34.6357   -10.6652 C.3     
  51 C51          -14.3911   -26.3255     0.5548 C.ar    
  52 C52          -13.1074   -26.3620     1.0797 C.ar    
  53 C53          -12.2511   -27.3995     0.7407 C.ar    
  54 C54          -12.6803   -28.3965    -0.1139 C.ar    
  55 O55          -12.6893   -25.3827     1.9241 O.3     
  56 O56          -15.9220   -35.0455    -3.1728 O.2     
  57 C57          -19.5460   -34.9203   -10.9538 C.3     
  58 N58          -19.3655   -35.1584   -12.3921 N.3     
  59 C59            9.5684   -13.4297    -0.4871 C.3     
  60 H60           -6.2555   -25.5158    -2.7851 H       
  61 C61          -19.5522   -29.1001    -6.9844 C.3     
  62 C62          -19.6248   -28.0840    -8.1259 C.3     
  63 C63          -18.9894   -26.7665    -7.6771 C.3     
  64 N64          -19.0592   -25.7908    -8.7730 N.3     
  65 N65          -25.1974   -34.7003    -7.3520 N.am    
  66 O66          -24.7508   -32.6659    -6.5879 O.2     
  67 C67          -26.6243   -34.5461    -7.0579 C.3     
  68 C68          -27.4235   -35.4529    -7.9579 C.2     
  69 C69          -26.8868   -34.9170    -5.5970 C.3     
  70 C70          -26.1747   -33.9192    -4.6815 C.3     
  71 C71          -26.7908   -32.5305    -4.8635 C.3     
  72 C72          -26.3330   -34.3604    -3.2251 C.3     
  73 N73          -28.7678   -35.4797    -7.8653 N.am    
  74 O74          -26.8571   -36.1584    -8.7654 O.2     
  75 C75          -29.5448   -36.3612    -8.7402 C.3     
  76 C76          -30.8631   -36.6841    -8.0853 C.2     
  77 C77          -29.7973   -35.6601   -10.0764 C.3     
  78 N78          -31.7482   -37.4850    -8.7111 N.am    
  79 O79          -31.1276   -36.2232    -6.9951 O.2     
  80 C80          -28.4659   -35.4441   -10.7987 C.3     
  81 C81          -28.7184   -34.7430   -12.1349 C.3     
  82 N82          -27.4436   -34.5362   -12.8265 N.pl3   
  83 C83          -27.4201   -33.9198   -14.0552 C.2     
  84 N84          -28.5931   -33.4975   -14.6349 N.pl3   
  85 N85          -26.2859   -33.7359   -14.6705 N.2     
  86 C86          -33.0648   -37.8798    -8.1892 C.3     
  87 C87          -33.7087   -38.8175    -9.2321 C.3     
  88 C88          -32.4848   -39.3500   -10.0232 C.3     
  89 C89          -31.5593   -38.1051   -10.0352 C.3     
  90 C90          -33.9268   -36.6588    -7.9964 C.2     
  91 O91          -33.4908   -35.5598    -8.2667 O.2     
  92 N92          -36.2727   -33.6569    -5.8820 N.am    
  93 C93          -35.5684   -34.7443    -6.2534 C.2     
  94 C94          -36.1271   -35.6865    -7.2884 C.3     
  95 N95          -35.1823   -36.7881    -7.5236 N.am    
  96 C96          -37.4411   -36.3116    -6.7744 C.3     
  97 C97          -37.3534   -37.7740    -7.2854 C.3     
  98 C98          -35.8359   -38.0578    -7.1573 C.3     
  99 O99          -34.4851   -34.9646    -5.7546 O.2     
 100 C100         -35.7296   -32.7410    -4.8758 C.3     
 101 C101         -36.3312   -31.3723    -5.0655 C.2     
 102 C102         -36.0715   -33.2589    -3.4773 C.3     
 103 C103         -35.3692   -34.5713    -3.2421 C.2     
 104 N104         -35.4522   -35.6603    -4.0208 N.2     
 105 C105         -34.5436   -34.8545    -2.2165 C.2     
 106 N106         -34.1295   -36.1480    -2.3869 N.pl3   
 107 C107         -34.7139   -36.6093    -3.5136 C.2     
 108 C108         -35.6442   -30.1609    -4.4900 C.3     
 109 O109         -37.3639   -31.2464    -5.6788 O.2     
 110 C110         -36.3858   -28.8969    -4.9297 C.3     
 111 C111         -35.8055   -27.7012    -4.2194 C.2     
 112 C112         -36.2331   -28.7159    -6.4412 C.3     
 113 O113         -37.0260   -27.6073    -6.8707 O.3     
 114 C114         -34.7639   -28.4526    -6.7775 C.3     
 115 O115         -34.7811   -27.8139    -3.5800 O.2     
 116 N116         -36.4249   -26.5066    -4.2946 N.am    
 117 C117         -35.8157   -25.3255    -3.6781 C.3     
 118 C118         -35.8807   -24.1669    -4.6396 C.2     
 119 N119         -35.3772   -22.9680    -4.2852 N.am    
 120 O120         -36.9331   -25.9494    -0.1607 O.3     
 121 C121         -36.3900   -26.0671    -1.3826 C.2     
 122 C122         -36.5749   -24.9694    -2.3983 C.3     
 123 O123         -35.7527   -27.0532    -1.6680 O.2     
 124 O124         -36.3861   -24.3134    -5.7323 O.2     
 125 C125         -35.4404   -21.8417    -5.2200 C.3     
 126 C126         -35.4082   -20.5470    -4.4494 C.2     
 127 N127         -35.4560   -19.3709    -5.1058 N.am    
 128 O128         -35.3392   -20.5635    -3.2387 O.2     
 129 C129         -34.2426   -21.8997    -6.1701 C.3     
 130 C130         -34.3422   -23.1541    -7.0404 C.3     
 131 C131         -33.1444   -23.2121    -7.9906 C.3     
 132 C132         -33.2440   -24.4665    -8.8609 C.3     
 133 N133         -32.0940   -24.5221    -9.7732 N.3     
 134 C134         -35.4247   -18.1122    -4.3567 C.3     
 135 C135         -34.8831   -17.0164    -5.2381 C.2     
 136 N136         -34.7628   -15.7629    -4.7579 N.am    
 137 C137         -37.1123   -18.6175    -1.5743 C.ar    
 138 C138         -37.3367   -18.7851    -2.9283 C.ar    
 139 C139         -36.8417   -17.7512    -3.9066 C.3     
 140 C140         -38.0142   -19.9001    -3.3863 C.ar    
 141 O141         -34.5556   -17.2625    -6.3796 O.2     
 142 C142         -34.2363   -14.6976    -5.6148 C.3     
 143 C143         -37.5647   -19.5640    -0.6756 C.ar    
 144 C144         -38.2451   -20.6834    -1.1326 C.ar    
 145 C145         -38.4690   -20.8493    -2.4916 C.ar    
 146 O146         -38.6911   -21.6160    -0.2504 O.3     
 147 C147         -35.3554   -14.1187    -6.4416 C.2     
 148 C148         -33.6242   -13.5984    -4.7442 C.3     
 149 C149         -32.4098   -14.1554    -3.9985 C.3     
 150 C150         -31.7976   -13.0563    -3.1279 C.3     
 151 N151         -30.6349   -13.5896    -2.4140 N.pl3   
 152 C152         -29.9181   -12.7794    -1.5655 C.2     
 153 N153         -28.8269   -13.2799    -0.8954 N.pl3   
 154 N154         -30.2731   -11.5367    -1.3963 N.2     
 155 O155         -36.4819   -14.5532    -6.3263 O.2     
 156 N156         -35.1045   -13.1182    -7.3090 N.am    
 157 C157         -36.1925   -12.5554    -8.1127 C.3     
 158 C158         -36.9068   -11.4931    -7.3175 C.2     
 159 N159         -37.9500   -10.8334    -7.8589 N.am    
 160 C160         -34.3161   -12.4060   -11.4693 C.3     
 161 C161         -35.0006   -13.0370   -10.2551 C.3     
 162 C162         -35.6170   -11.9371    -9.3884 C.3     
 163 C163         -36.1001   -13.9902   -10.7277 C.3     
 164 O164         -36.5429   -11.2318    -6.1905 O.2     
 165 H165           7.5768   -12.7288    -0.9149 H       
 166 H166           7.8017   -13.3383     0.7422 H       
 167 H167           7.7966   -15.0370    -1.7938 H       
 168 H168           8.0215   -15.6466    -0.1366 H       
 169 H169           5.7809   -14.7848     0.4844 H       
 170 H170           5.5560   -14.1753    -1.1727 H       
 171 H171           5.7758   -16.4835    -2.0516 H       
 172 H172           6.0007   -17.0930    -0.3944 H       
 173 H173           3.7601   -16.2313     0.2266 H       
 174 H174           3.5352   -15.6217    -1.4305 H       
 175 H175           3.7550   -17.9300    -2.3094 H       
 176 H176           3.9799   -18.5395    -0.6522 H       
 177 H177           1.7393   -17.6778    -0.0311 H       
 178 H178           1.5144   -17.0682    -1.6883 H       
 179 H179           1.7342   -19.3764    -2.5672 H       
 180 H180           1.9591   -19.9860    -0.9100 H       
 181 H181          -0.2815   -19.1242    -0.2889 H       
 182 H182          -0.5064   -18.5147    -1.9461 H       
 183 H183          -0.2866   -20.8229    -2.8249 H       
 184 H184          -0.0617   -21.4325    -1.1678 H       
 185 H185          -2.3023   -20.5707    -0.5467 H       
 186 H186          -2.5272   -19.9612    -2.2039 H       
 187 H187          -2.3074   -22.2694    -3.0827 H       
 188 H188          -2.0825   -22.8789    -1.4256 H       
 189 H189          -4.3231   -22.0172    -0.8045 H       
 190 H190          -4.5480   -21.4076    -2.4617 H       
 191 H191          -4.3282   -23.7159    -3.3405 H       
 192 H192          -4.1033   -24.3254    -1.6834 H       
 193 H193          -8.4405   -24.6552    -1.2160 H       
 194 H194          -8.6654   -24.0457    -2.8732 H       
 195 H195         -10.6278   -25.8005    -2.2964 H       
 196 H196         -10.2338   -27.9430    -4.0939 H       
 197 H197         -10.0089   -28.5525    -2.4367 H       
 198 H198         -12.1611   -29.7429    -3.5384 H       
 199 H199         -14.5337   -28.0679    -3.2334 H       
 200 H200         -16.5831   -29.8113    -3.3855 H       
 201 H201         -15.4980   -29.5767    -1.4711 H       
 202 H202         -13.9119   -30.3727    -1.3334 H       
 203 H203         -15.8127   -27.2938    -0.7129 H       
 204 H204         -15.9846   -31.2925    -5.8299 H       
 205 H205         -16.9554   -32.6706    -3.2868 H       
 206 H206         -16.9567   -33.4158    -4.9033 H       
 207 H207         -18.3029   -32.5328    -6.4217 H       
 208 H208         -14.5030   -33.0915    -5.0548 H       
 209 H209         -14.5017   -32.3463    -3.4383 H       
 210 H210         -12.8934   -34.5087    -3.4228 H       
 211 H211         -13.6486   -35.8713    -2.7940 H       
 212 H212         -20.5757   -31.0110    -5.3991 H       
 213 H213         -19.6494   -30.8043    -8.2987 H       
 214 H214         -21.2301   -30.2456    -7.7008 H       
 215 H215         -22.6319   -31.7885    -6.9580 H       
 216 H216         -22.4755   -34.7012    -6.8196 H       
 217 H217         -23.2864   -34.9594    -9.1835 H       
 218 H218         -23.0002   -33.2208    -9.4353 H       
 219 H219         -20.6078   -33.5315    -8.8622 H       
 220 H220         -20.8939   -35.2702    -8.6104 H       
 221 H221         -21.6230   -35.4920   -10.9701 H       
 222 H222         -21.3368   -33.7533   -11.2219 H       
 223 H223         -15.0595   -25.5187     0.8169 H       
 224 H224         -11.2513   -27.4301     1.1479 H       
 225 H225         -12.0142   -29.2046    -0.3778 H       
 226 H226         -12.8632   -25.5673     2.8573 H       
 227 H227         -18.9444   -34.0641   -10.6488 H       
 228 H228         -19.2305   -35.8027   -10.3970 H       
 229 H229         -18.3985   -35.3488   -12.6085 H       
 230 H230         -19.9619   -35.9065   -12.7124 H       
 231 H231          10.0423   -14.2001     0.1211 H       
 232 H232           9.8174   -13.5906    -1.5360 H       
 233 H233           9.9268   -12.4487    -0.1749 H       
 234 H234         -20.0903   -28.7135    -6.1190 H       
 235 H235         -18.5096   -29.2721    -6.7169 H       
 236 H236         -19.0866   -28.4706    -8.9913 H       
 237 H237         -20.6674   -27.9120    -8.3935 H       
 238 H238         -19.5276   -26.3798    -6.8116 H       
 239 H239         -17.9469   -26.9385    -7.4095 H       
 240 H240         -18.6456   -24.9115    -8.5012 H       
 241 H241         -18.6230   -26.1529    -9.6078 H       
 242 H242         -24.8693   -35.5247    -7.7440 H       
 243 H243         -26.9207   -33.5112    -7.2289 H       
 244 H244         -27.9588   -34.8881    -5.4018 H       
 245 H245         -26.5092   -35.9210    -5.4035 H       
 246 H246         -25.1157   -33.8832    -4.9372 H       
 247 H247         -27.8497   -32.5665    -4.6078 H       
 248 H248         -26.2834   -31.8196    -4.2113 H       
 249 H249         -26.6780   -32.2162    -5.9011 H       
 250 H250         -25.8941   -35.3497    -3.0954 H       
 251 H251         -25.8257   -33.6495    -2.5729 H       
 252 H252         -27.3920   -34.3963    -2.9694 H       
 253 H253         -29.2209   -34.9154    -7.2194 H       
 254 H254         -28.9895   -37.2832    -8.9129 H       
 255 H255         -30.4494   -36.2782   -10.6936 H       
 256 H256         -30.2737   -34.6963    -9.8967 H       
 257 H257         -27.8139   -34.8260   -10.1815 H       
 258 H258         -27.9896   -36.4079   -10.9784 H       
 259 H259         -29.3705   -35.3611   -12.7521 H       
 260 H260         -29.1948   -33.7792   -11.9552 H       
 261 H261         -26.6160   -34.8341   -12.4174 H       
 262 H262         -29.4372   -33.6344   -14.1770 H       
 263 H263         -28.5765   -33.0626   -15.5018 H       
 264 H264         -26.2693   -33.3010   -15.5374 H       
 265 H265         -32.9455   -38.4053    -7.2417 H       
 266 H266         -34.2363   -39.6354    -8.7415 H       
 267 H267         -34.3797   -38.2624    -9.8876 H       
 268 H268         -32.0158   -40.1846    -9.5021 H       
 269 H269         -32.7681   -39.6338   -11.0367 H       
 270 H270         -31.8573   -37.4184   -10.8275 H       
 271 H271         -30.5197   -38.4064   -10.1643 H       
 272 H272         -37.1392   -33.4807    -6.2809 H       
 273 H273         -36.3088   -35.1490    -8.2191 H       
 274 H274         -37.4804   -36.2853    -5.6854 H       
 275 H275         -38.3041   -35.8037    -7.2049 H       
 276 H276         -37.9314   -38.4451    -6.6502 H       
 277 H277         -37.6779   -37.8451    -8.3236 H       
 278 H278         -35.5387   -38.8496    -7.8448 H       
 279 H279         -35.5864   -38.3310    -6.1320 H       
 280 H280         -34.6469   -32.6804    -4.9862 H       
 281 H281         -35.7456   -32.5337    -2.7316 H       
 282 H282         -37.1488   -33.4038    -3.3968 H       
 283 H283         -34.2619   -34.1887    -1.4141 H       
 284 H284         -33.5268   -36.6404    -1.8080 H       
 285 H285         -34.5909   -37.5998    -3.9263 H       
 286 H286         -35.6475   -30.2240    -3.4018 H       
 287 H287         -34.6156   -30.1219    -4.8485 H       
 288 H288         -37.4427   -28.9903    -4.6799 H       
 289 H289         -36.5662   -29.6199    -6.9510 H       
 290 H290         -37.9781   -27.7410    -6.7666 H       
 291 H291         -34.1727   -29.3369    -6.5396 H       
 292 H292         -34.6690   -28.2271    -7.8397 H       
 293 H293         -34.4033   -27.6064    -6.1928 H       
 294 H294         -37.2740   -26.4288    -4.7570 H       
 295 H295         -34.7746   -25.5384    -3.4356 H       
 296 H296         -34.9730   -22.8509    -3.4113 H       
 297 H297         -36.7874   -26.6793     0.4567 H       
 298 H298         -36.1890   -24.0329    -1.9956 H       
 299 H299         -37.6355   -24.8582    -2.6241 H       
 300 H300         -36.3641   -21.8989    -5.7959 H       
 301 H301         -35.5112   -19.3577    -6.0741 H       
 302 H302         -34.2407   -21.0150    -6.8068 H       
 303 H303         -33.3201   -21.9321    -5.5903 H       
 304 H304         -34.3441   -24.0388    -6.4038 H       
 305 H305         -35.2647   -23.1217    -7.6202 H       
 306 H306         -33.1425   -22.3273    -8.6272 H       
 307 H307         -32.2220   -23.2444    -7.4108 H       
 308 H308         -33.2459   -25.3512    -8.2242 H       
 309 H309         -34.1665   -24.4341    -9.4407 H       
 310 H310         -31.2248   -24.4879    -9.2618 H       
 311 H311         -32.1367   -25.3423   -10.3592 H       
 312 H312         -34.7836   -18.2255    -3.4825 H       
 313 H313         -35.0247   -15.5660    -3.8450 H       
 314 H314         -36.5790   -17.7480    -1.2194 H       
 315 H315         -36.8323   -16.7724    -3.4270 H       
 316 H316         -37.5025   -17.7250    -4.7730 H       
 317 H317         -38.1882   -20.0288    -4.4444 H       
 318 H318         -33.4713   -15.1068    -6.2746 H       
 319 H319         -37.3888   -19.4328     0.3819 H       
 320 H320         -38.9987   -21.7196    -2.8498 H       
 321 H321         -39.5854   -21.4506     0.0781 H       
 322 H322         -33.3126   -12.7662    -5.3754 H       
 323 H323         -34.3647   -13.2508    -4.0239 H       
 324 H324         -32.7213   -14.9877    -3.3673 H       
 325 H325         -31.6692   -14.5031    -4.7188 H       
 326 H326         -31.4861   -12.2240    -3.7591 H       
 327 H327         -32.5382   -12.7086    -2.4076 H       
 328 H328         -30.3707   -14.5144    -2.5399 H       
 329 H329         -28.5627   -14.2047    -1.0214 H       
 330 H330         -28.3212   -12.7082    -0.2968 H       
 331 H331         -29.7674   -10.9650    -0.7976 H       
 332 H332         -34.2036   -12.7707    -7.4011 H       
 333 H333         -36.8952   -13.3456    -8.3769 H       
 334 H334         -38.2410   -11.0424    -8.7603 H       
 335 H335         -38.4097   -10.1496    -7.3471 H       
 336 H336         -33.5327   -11.7269   -11.1326 H       
 337 H337         -33.8769   -13.1896   -12.0867 H       
 338 H338         -35.0508   -11.8520   -12.0535 H       
 339 H339         -34.2658   -13.5910    -9.6709 H       
 340 H340         -36.4135   -11.4410    -9.9430 H       
 341 H341         -34.8496   -11.2091    -9.1251 H       
 342 H342         -35.6610   -14.7738   -11.3451 H       
 343 H343         -36.5878   -14.4397    -9.8627 H       
 344 H344         -36.8349   -13.4362   -11.3119 H       
@<TRIPOS>BOND
   1    1    2 1
   2    1   59 1
   3    1  165 1
   4    1  166 1
   5    2    3 1
   6    2  167 1
   7    2  168 1
   8    3    4 1
   9    3  169 1
  10    3  170 1
  11    4    5 1
  12    4  171 1
  13    4  172 1
  14    5    6 1
  15    5  173 1
  16    5  174 1
  17    6    7 1
  18    6  175 1
  19    6  176 1
  20    7    8 1
  21    7  177 1
  22    7  178 1
  23    8    9 1
  24    8  179 1
  25    8  180 1
  26    9   10 1
  27    9  181 1
  28    9  182 1
  29   10   11 1
  30   10  183 1
  31   10  184 1
  32   11   12 1
  33   11  185 1
  34   11  186 1
  35   12   13 1
  36   12  187 1
  37   12  188 1
  38   13   14 1
  39   13  189 1
  40   13  190 1
  41   14   15 1
  42   14  191 1
  43   14  192 1
  44   15   16 am
  45   15   17 2
  46   16   18 1
  47   16   60 1
  48   18   19 1
  49   18  193 1
  50   18  194 1
  51   19   20 am
  52   19   21 2
  53   20   22 1
  54   20  195 1
  55   22   23 1
  56   22  196 1
  57   22  197 1
  58   23   24 am
  59   23   25 2
  60   24   26 1
  61   24  198 1
  62   26   27 1
  63   26   30 1
  64   26  199 1
  65   27   28 2
  66   27   29 am
  67   29   33 1
  68   29  200 1
  69   30   31 1
  70   30  201 1
  71   30  202 1
  72   31   32 ar
  73   31   54 ar
  74   32   51 ar
  75   32  203 1
  76   33   34 1
  77   33   35 1
  78   33  204 1
  79   34   38 1
  80   34  205 1
  81   34  206 1
  82   35   36 2
  83   35   37 am
  84   37   41 1
  85   37  207 1
  86   38   39 1
  87   38  208 1
  88   38  209 1
  89   39   40 am
  90   39   56 2
  91   40  210 1
  92   40  211 1
  93   41   42 1
  94   41   43 1
  95   41  212 1
  96   42   61 1
  97   42  213 1
  98   42  214 1
  99   43   44 2
 100   43   45 am
 101   45   46 1
 102   45  215 1
 103   46   47 1
 104   46   48 1
 105   46  216 1
 106   47   49 1
 107   47  217 1
 108   47  218 1
 109   48   65 am
 110   48   66 2
 111   49   50 1
 112   49  219 1
 113   49  220 1
 114   50   57 1
 115   50  221 1
 116   50  222 1
 117   51   52 ar
 118   51  223 1
 119   52   53 ar
 120   52   55 1
 121   53   54 ar
 122   53  224 1
 123   54  225 1
 124   55  226 1
 125   57   58 1
 126   57  227 1
 127   57  228 1
 128   58  229 1
 129   58  230 1
 130   59  231 1
 131   59  232 1
 132   59  233 1
 133   61   62 1
 134   61  234 1
 135   61  235 1
 136   62   63 1
 137   62  236 1
 138   62  237 1
 139   63   64 1
 140   63  238 1
 141   63  239 1
 142   64  240 1
 143   64  241 1
 144   65   67 1
 145   65  242 1
 146   67   68 1
 147   67   69 1
 148   67  243 1
 149   68   73 am
 150   68   74 2
 151   69   70 1
 152   69  244 1
 153   69  245 1
 154   70   71 1
 155   70   72 1
 156   70  246 1
 157   71  247 1
 158   71  248 1
 159   71  249 1
 160   72  250 1
 161   72  251 1
 162   72  252 1
 163   73   75 1
 164   73  253 1
 165   75   76 1
 166   75   77 1
 167   75  254 1
 168   76   78 am
 169   76   79 2
 170   77   80 1
 171   77  255 1
 172   77  256 1
 173   78   86 1
 174   78   89 1
 175   80   81 1
 176   80  257 1
 177   80  258 1
 178   81   82 1
 179   81  259 1
 180   81  260 1
 181   82   83 1
 182   82  261 1
 183   83   84 1
 184   83   85 2
 185   84  262 1
 186   84  263 1
 187   85  264 1
 188   86   87 1
 189   86   90 1
 190   86  265 1
 191   87   88 1
 192   87  266 1
 193   87  267 1
 194   88   89 1
 195   88  268 1
 196   88  269 1
 197   89  270 1
 198   89  271 1
 199   90   91 2
 200   90   95 am
 201   92   93 am
 202   92  100 1
 203   92  272 1
 204   93   99 2
 205   93   94 1
 206   94   95 1
 207   94   96 1
 208   94  273 1
 209   95   98 1
 210   96   97 1
 211   96  274 1
 212   96  275 1
 213   97   98 1
 214   97  276 1
 215   97  277 1
 216   98  278 1
 217   98  279 1
 218  100  101 1
 219  100  102 1
 220  100  280 1
 221  101  108 1
 222  101  109 2
 223  102  103 1
 224  102  281 1
 225  102  282 1
 226  103  104 1
 227  103  105 2
 228  104  107 2
 229  105  106 1
 230  105  283 1
 231  106  107 1
 232  106  284 1
 233  107  285 1
 234  108  110 1
 235  108  286 1
 236  108  287 1
 237  110  111 1
 238  110  112 1
 239  110  288 1
 240  111  115 2
 241  111  116 am
 242  112  113 1
 243  112  114 1
 244  112  289 1
 245  113  290 1
 246  114  291 1
 247  114  292 1
 248  114  293 1
 249  116  117 1
 250  116  294 1
 251  117  118 1
 252  117  122 1
 253  117  295 1
 254  118  119 am
 255  118  124 2
 256  119  125 1
 257  119  296 1
 258  120  121 1
 259  120  297 1
 260  121  122 1
 261  121  123 2
 262  122  298 1
 263  122  299 1
 264  125  126 1
 265  125  129 1
 266  125  300 1
 267  126  127 am
 268  126  128 2
 269  127  134 1
 270  127  301 1
 271  129  130 1
 272  129  302 1
 273  129  303 1
 274  130  131 1
 275  130  304 1
 276  130  305 1
 277  131  132 1
 278  131  306 1
 279  131  307 1
 280  132  133 1
 281  132  308 1
 282  132  309 1
 283  133  310 1
 284  133  311 1
 285  134  135 1
 286  134  139 1
 287  134  312 1
 288  135  136 am
 289  135  141 2
 290  136  142 1
 291  136  313 1
 292  137  138 ar
 293  137  143 ar
 294  137  314 1
 295  138  139 1
 296  138  140 ar
 297  139  315 1
 298  139  316 1
 299  140  145 ar
 300  140  317 1
 301  142  147 1
 302  142  148 1
 303  142  318 1
 304  143  144 ar
 305  143  319 1
 306  144  145 ar
 307  144  146 1
 308  145  320 1
 309  146  321 1
 310  147  155 2
 311  147  156 am
 312  148  149 1
 313  148  322 1
 314  148  323 1
 315  149  150 1
 316  149  324 1
 317  149  325 1
 318  150  151 1
 319  150  326 1
 320  150  327 1
 321  151  152 1
 322  151  328 1
 323  152  153 1
 324  152  154 2
 325  153  329 1
 326  153  330 1
 327  154  331 1
 328  156  157 1
 329  156  332 1
 330  157  158 1
 331  157  162 1
 332  157  333 1
 333  158  159 am
 334  158  164 2
 335  159  334 1
 336  159  335 1
 337  160  161 1
 338  160  336 1
 339  160  337 1
 340  160  338 1
 341  161  162 1
 342  161  163 1
 343  161  339 1
 344  162  340 1
 345  162  341 1
 346  163  342 1
 347  163  343 1
 348  163  344 1

#	End of record

