#	Name: ASD02560196
#	Creating user name:	WinNT
#	Creation time:	15. 06. 2019 20:24

#	Modifying user name:	WinNT
#	Modification time:	15. 06. 2019 20:24

#	Program:	/corina/corina34_cracker 3.40 0067  02.08.2006

@<TRIPOS>MOLECULE
ASD02560196
  60   63    0    0    0
SMALL
NO_CHARGES


@<TRIPOS>ATOM
   1 O1             1.9963     1.6347     0.2578 O.3     
   2 Br2            2.3431   -15.8387    -0.9979 Br      
   3 N3             0.8495   -13.9800     0.5341 N.2     
   4 N4             1.5413   -13.1568     1.1415 N.2     
   5 C5             1.3272   -14.1627    -0.8426 C.3     
   6 N6             2.2115   -12.9968    -1.0942 N.3     
   7 C7             2.6142   -12.6312     0.2874 C.3     
   8 S8             2.7297   -10.8287     0.4555 S.3     
   9 C9             1.0484   -10.2734     0.0610 C.3     
  10 C10            0.9798    -8.7711     0.1582 C.2     
  11 O11            1.9677    -8.1375     0.4636 O.2     
  12 N12           -0.1796    -8.1318    -0.0942 N.am    
  13 C13            3.3184   -13.3649    -1.8559 C.ar    
  14 C14           -0.2609    -6.7479     0.0605 C.ar    
  15 C15           -1.4651    -6.1608     0.4401 C.ar    
  16 C16           -1.5482    -4.7944     0.5937 C.ar    
  17 C17           -0.4221    -3.9979     0.3677 C.ar    
  18 C18            0.7843    -4.5909    -0.0131 C.ar    
  19 C19            0.8624    -5.9580    -0.1593 C.ar    
  20 Cl20          -2.8630    -7.1516     0.7197 Cl      
  21 C21           -0.5073    -2.5334     0.5307 C.2     
  22 C22            3.1456   -13.9045    -3.1487 C.ar    
  23 C23            4.5928   -13.2003    -1.3561 C.ar    
  24 C24            5.7048   -13.5648    -2.1089 C.ar    
  25 C25            5.5670   -14.0924    -3.3566 C.ar    
  26 C26            4.2858   -14.2718    -3.9051 C.ar    
  27 C27            1.8666   -14.0842    -3.6981 C.ar    
  28 C28            4.1135   -14.8146    -5.1904 C.ar    
  29 C29            2.8581   -14.9752    -5.6909 C.ar    
  30 C30            1.7375   -14.6081    -4.9482 C.ar    
  31 C31            6.7880   -14.4783    -4.1511 C.3     
  32 N32            0.5794    -1.7667     0.3125 N.am    
  33 O33           -1.5580    -2.0187     0.8618 O.2     
  34 C34            0.4948    -0.3131     0.4743 C.3     
  35 C35            1.8360     0.3047     0.1736 C.2     
  36 O36            2.7671    -0.3972    -0.1433 O.2     
  37 C37            7.1781   -13.3258    -5.0788 C.3     
  38 H38            2.8748     1.9847     0.0556 H       
  39 H39            0.4885   -14.1603    -1.5388 H       
  40 H40            3.5654   -13.0987     0.5418 H       
  41 H41            0.7915   -10.5841    -0.9517 H       
  42 H42            0.3449   -10.7157     0.7663 H       
  43 H43           -0.9574    -8.6340    -0.3834 H       
  44 H44           -2.4824    -4.3392     0.8878 H       
  45 H45            1.6561    -3.9779    -0.1883 H       
  46 H46            1.7950    -6.4165    -0.4533 H       
  47 H47            4.7295   -12.7833    -0.3693 H       
  48 H48            6.6935   -13.4266    -1.6969 H       
  49 H49            0.9892   -13.8086    -3.1320 H       
  50 H50            4.9729   -15.1024    -5.7777 H       
  51 H51            2.7284   -15.3924    -6.6786 H       
  52 H52            0.7522   -14.7462    -5.3682 H       
  53 H53            7.6121   -14.6916    -3.4702 H       
  54 H54            6.5692   -15.3652    -4.7457 H       
  55 H55            1.4176    -2.1773     0.0484 H       
  56 H56           -0.2514     0.0861    -0.2128 H       
  57 H57            0.2079    -0.0777     1.4991 H       
  58 H58            6.3541   -13.1126    -5.7596 H       
  59 H59            7.3970   -12.4389    -4.4841 H       
  60 H60            8.0613   -13.6050    -5.6534 H       
@<TRIPOS>BOND
   1    1   35 1
   2    1   38 1
   3    2    5 1
   4    3    4 2
   5    3    5 1
   6    4    7 1
   7    5    6 1
   8    5   39 1
   9    6    7 1
  10    6   13 1
  11    7    8 1
  12    7   40 1
  13    8    9 1
  14    9   10 1
  15    9   41 1
  16    9   42 1
  17   10   11 2
  18   10   12 am
  19   12   14 1
  20   12   43 1
  21   13   22 ar
  22   13   23 ar
  23   14   15 ar
  24   14   19 ar
  25   15   16 ar
  26   15   20 1
  27   16   17 ar
  28   16   44 1
  29   17   18 ar
  30   17   21 1
  31   18   19 ar
  32   18   45 1
  33   19   46 1
  34   21   32 am
  35   21   33 2
  36   22   26 ar
  37   22   27 ar
  38   23   24 ar
  39   23   47 1
  40   24   25 ar
  41   24   48 1
  42   25   26 ar
  43   25   31 1
  44   26   28 ar
  45   27   30 ar
  46   27   49 1
  47   28   29 ar
  48   28   50 1
  49   29   30 ar
  50   29   51 1
  51   30   52 1
  52   31   37 1
  53   31   53 1
  54   31   54 1
  55   32   34 1
  56   32   55 1
  57   34   35 1
  58   34   56 1
  59   34   57 1
  60   35   36 2
  61   37   58 1
  62   37   59 1
  63   37   60 1

#	End of record

