#	Name: ASD00360020
#	Creating user name:	WinNT
#	Creation time:	15. 06. 2019 18:35

#	Modifying user name:	WinNT
#	Modification time:	15. 06. 2019 18:35

#	Program:	/corina/corina34_cracker 3.40 0067  02.08.2006

@<TRIPOS>MOLECULE
ASD00360020
  48   51    0    0    0
SMALL
NO_CHARGES


@<TRIPOS>ATOM
   1 C1             0.0747     1.3547    -0.0563 C.ar    
   2 C2             0.0464    -0.0343    -0.0378 C.ar    
   3 C3             1.2272    -0.7591    -0.0561 C.ar    
   4 C4             2.4566    -0.1047    -0.0927 C.ar    
   5 C5             2.5019     1.2822    -0.1106 C.ar    
   6 C6             1.3030     2.0231    -0.0929 C.ar    
   7 C7             1.3538     3.4956    -0.1120 C.2     
   8 C8             3.7996     1.9918    -0.1465 C.2     
   9 C9             3.8352     3.4418     0.1425 C.ar    
  10 C10            2.6344     4.1778     0.1589 C.ar    
  11 C11            2.6669     5.5467     0.4320 C.ar    
  12 C12            5.0412     4.0830     0.3979 C.ar    
  13 C13            5.0589     5.4429     0.6670 C.ar    
  14 C14            3.8865     6.1696     0.6860 C.ar    
  15 O15            1.1859    -2.1155    -0.0378 O.3     
  16 O16            4.8227     1.3912    -0.4095 O.2     
  17 O17            0.3511     4.1421    -0.3490 O.2     
  18 O18            1.5175     6.2659     0.4495 O.3     
  19 O19           -1.0837     2.0594    -0.0445 O.3     
  20 C20            6.3698     6.1326     0.9438 C.3     
  21 C21           -1.2757    -0.7564     0.0028 C.3     
  22 N22           -1.7910    -0.9089    -1.3601 N.pl3   
  23 C23           -1.3308    -2.0196    -2.1972 C.3     
  24 C24           -2.7209     0.0048    -1.8615 C.ar    
  25 C25           -3.1141    -0.0613    -3.1921 C.ar    
  26 C26           -4.0342     0.8433    -3.6845 C.ar    
  27 C27           -4.5640     1.8141    -2.8543 C.ar    
  28 C28           -4.1748     1.8827    -1.5291 C.ar    
  29 C29           -3.2591     0.9779    -1.0290 C.ar    
  30 H30            3.3730    -0.6759    -0.1068 H       
  31 H31            5.9642     3.5223     0.3871 H       
  32 H32            3.9147     7.2284     0.8971 H       
  33 H33            1.1533    -2.5200    -0.9155 H       
  34 H34            1.0910     6.3047     1.3165 H       
  35 H35           -1.4038     2.2752     0.8420 H       
  36 H36            6.7940     6.4959     0.0077 H       
  37 H37            6.2030     6.9731     1.6175 H       
  38 H38            7.0607     5.4277     1.4063 H       
  39 H39           -1.1387    -1.7402     0.4516 H       
  40 H40           -1.9856    -0.1815     0.5974 H       
  41 H41           -1.9831    -2.8803    -2.0496 H       
  42 H42           -1.3562    -1.7198    -3.2449 H       
  43 H43           -0.3106    -2.2851    -1.9200 H       
  44 H44           -2.7004    -0.8191    -3.8411 H       
  45 H45           -4.3400     0.7927    -4.7190 H       
  46 H46           -5.2831     2.5205    -3.2420 H       
  47 H47           -4.5906     2.6421    -0.8835 H       
  48 H48           -2.9590     1.0293     0.0072 H       
@<TRIPOS>BOND
   1    1    2 ar
   2    1    6 ar
   3    1   19 1
   4    2    3 ar
   5    2   21 1
   6    3    4 ar
   7    3   15 1
   8    4    5 ar
   9    4   30 1
  10    5    6 ar
  11    5    8 1
  12    6    7 1
  13    7   10 1
  14    7   17 2
  15    8    9 1
  16    8   16 2
  17    9   12 ar
  18    9   10 ar
  19   10   11 ar
  20   11   14 ar
  21   11   18 1
  22   12   13 ar
  23   12   31 1
  24   13   14 ar
  25   13   20 1
  26   14   32 1
  27   15   33 1
  28   18   34 1
  29   19   35 1
  30   20   36 1
  31   20   37 1
  32   20   38 1
  33   21   22 1
  34   21   39 1
  35   21   40 1
  36   22   23 1
  37   22   24 1
  38   23   41 1
  39   23   42 1
  40   23   43 1
  41   24   25 ar
  42   24   29 ar
  43   25   26 ar
  44   25   44 1
  45   26   27 ar
  46   26   45 1
  47   27   28 ar
  48   27   46 1
  49   28   29 ar
  50   28   47 1
  51   29   48 1

#	End of record

