#	Name: ASD01885341
#	Creating user name:	WinNT
#	Creation time:	15. 06. 2019 19:49

#	Modifying user name:	WinNT
#	Modification time:	15. 06. 2019 19:49

#	Program:	/corina/corina34_cracker 3.40 0067  02.08.2006

@<TRIPOS>MOLECULE
ASD01885341
  49   53    0    0    0
SMALL
NO_CHARGES


@<TRIPOS>ATOM
   1 C1            -0.0170     1.4040     0.0098 C.2     
   2 C2             1.1979    -0.6520    -0.0129 C.2     
   3 C3             2.3924     0.0887    -0.0203 C.2     
   4 C4             2.3586     1.4378    -0.0127 C.2     
   5 N5             1.1666     2.1005     0.0022 N.pl3   
   6 C6             0.8239     3.4172     0.0121 C.2     
   7 N7            -0.4824     3.4837     0.0247 N.2     
   8 N8            -0.9895     2.3010     0.0186 N.2     
   9 C9             1.7755     4.5857     0.0099 C.3     
  10 C10            2.0850     4.9887    -1.4333 C.3     
  11 C11            0.0021    -0.0041     0.0020 C.2     
  12 C12           -1.2874    -0.7840     0.0106 C.3     
  13 C13            1.2420    -2.1583    -0.0214 C.3     
  14 N14            1.3638    -2.6368    -1.4050 N.3     
  15 C15            1.6502    -4.0941    -1.4410 C.3     
  16 C16            2.2702    -4.3343    -2.8343 C.3     
  17 C17            2.8509    -2.9687    -3.2555 C.3     
  18 C18            2.5329    -2.0182    -2.0813 C.3     
  19 C19            3.7813    -4.1543    -2.9922 C.3     
  20 H20            2.7294    -2.5803    -4.2667 H       
  21 H21            1.7165    -4.9626    -3.5320 H       
  22 C22            4.4370    -4.8010    -4.1851 C.ar    
  23 C23            5.4291    -5.7457    -4.0008 C.ar    
  24 C24            6.0305    -6.3389    -5.0950 C.ar    
  25 C25            5.6395    -5.9876    -6.3735 C.ar    
  26 C26            4.6467    -5.0435    -6.5578 C.ar    
  27 C27            4.0423    -4.4535    -5.4635 C.ar    
  28 H28            3.3425    -0.4246    -0.0318 H       
  29 H29            3.2825     1.9970    -0.0182 H       
  30 H30            1.3195     5.4267     0.5321 H       
  31 H31            2.6995     4.3027     0.5141 H       
  32 H32            2.5410     4.1476    -1.9556 H       
  33 H33            1.1610     5.2716    -1.9376 H       
  34 H34            2.7733     5.8338    -1.4349 H       
  35 H35           -2.1300    -0.0927     0.0227 H       
  36 H36           -1.3412    -1.4069    -0.8822 H       
  37 H37           -1.3236    -1.4164     0.8976 H       
  38 H38            2.0997    -2.5000     0.5580 H       
  39 H39            0.3258    -2.5511     0.4196 H       
  40 H40            2.3598    -4.3616    -0.6580 H       
  41 H41            0.7285    -4.6655    -1.3314 H       
  42 H42            2.2758    -1.0266    -2.4537 H       
  43 H43            3.3806    -1.9608    -1.3984 H       
  44 H44            4.3820    -4.1293    -2.0829 H       
  45 H45            5.7346    -6.0202    -3.0019 H       
  46 H46            6.8062    -7.0765    -4.9511 H       
  47 H47            6.1099    -6.4505    -7.2285 H       
  48 H48            4.3414    -4.7689    -7.5567 H       
  49 H49            3.2641    -3.7186    -5.6074 H       
@<TRIPOS>BOND
   1    1   11 1
   2    1    5 1
   3    1    8 2
   4    2    3 1
   5    2   13 1
   6    2   11 2
   7    3    4 2
   8    3   28 1
   9    4    5 1
  10    4   29 1
  11    5    6 1
  12    6    7 2
  13    6    9 1
  14    7    8 1
  15    9   10 1
  16    9   30 1
  17    9   31 1
  18   10   32 1
  19   10   33 1
  20   10   34 1
  21   11   12 1
  22   12   35 1
  23   12   36 1
  24   12   37 1
  25   13   14 1
  26   13   38 1
  27   13   39 1
  28   14   15 1
  29   14   18 1
  30   15   16 1
  31   15   40 1
  32   15   41 1
  33   16   17 1
  34   16   21 1
  35   16   19 1
  36   17   18 1
  37   17   20 1
  38   17   19 1
  39   18   42 1
  40   18   43 1
  41   19   22 1
  42   19   44 1
  43   22   23 ar
  44   22   27 ar
  45   23   24 ar
  46   23   45 1
  47   24   25 ar
  48   24   46 1
  49   25   26 ar
  50   25   47 1
  51   26   27 ar
  52   26   48 1
  53   27   49 1

#	End of record

