#	Name: ASD05430726
#	Creating user name:	WinNT
#	Creation time:	15. 06. 2019 21:00

#	Modifying user name:	WinNT
#	Modification time:	15. 06. 2019 21:00

#	Program:	/corina/corina34_cracker 3.40 0067  02.08.2006

@<TRIPOS>MOLECULE
ASD05430726
  55   59    0    0    0
SMALL
NO_CHARGES


@<TRIPOS>ATOM
   1 C1            -0.0517     1.2197     0.0692 C.2     
   2 C2            -0.0955    -0.1646    -0.1384 C.2     
   3 C3            -1.3446    -0.7981    -0.2807 C.2     
   4 C4            -2.4760    -0.0670    -0.2156 C.2     
   5 N5            -2.4389     1.2811    -0.0141 N.am    
   6 C6            -1.2713     1.9373     0.1337 C.2     
   7 O7            -1.2643     3.1436     0.3128 O.2     
   8 C8            -3.6957     2.0314     0.0480 C.3     
   9 C9            -4.4815     1.8184    -1.2474 C.3     
  10 C10           -4.5133     1.5458     1.2171 C.ar    
  11 C11           -3.8831     1.1143     2.3689 C.ar    
  12 C12           -4.6327     0.6686     3.4433 C.ar    
  13 C13           -6.0134     0.6548     3.3649 C.ar    
  14 C14           -6.6448     1.0871     2.2109 C.ar    
  15 C15           -5.8933     1.5376     1.1389 C.ar    
  16 N16            1.2438     1.5708     0.1717 N.2     
  17 C17            1.9981     0.5059     0.0427 C.2     
  18 N18            1.2045    -0.5956    -0.1519 N.pl3   
  19 C19            3.4752     0.4945     0.0979 C.ar    
  20 C20            4.1763     1.6840     0.3021 C.ar    
  21 C21            5.5580     1.6688     0.3531 C.ar    
  22 C22            6.2474     0.4668     0.2006 C.ar    
  23 C23            5.5490    -0.7160    -0.0025 C.ar    
  24 C24            4.1712    -0.7070    -0.0483 C.ar    
  25 N25            7.6483     0.4522     0.2519 N.pl3   
  26 C26            8.4901     1.2615    -0.4417 C.2     
  27 N27            9.7184     0.9487    -0.1300 N.2     
  28 C28            9.7092    -0.0551     0.7595 C.2     
  29 C29            8.4271    -0.3776     1.0162 C.2     
  30 C30           10.9235    -0.7058     1.3703 C.3     
  31 F31           -7.9934     1.0741     2.1330 F       
  32 Cl32          -3.8400     0.1263     4.8894 Cl      
  33 O33            6.2440     2.8257     0.5514 O.3     
  34 C34            5.4731     4.0198     0.6991 C.3     
  35 H35           -1.3966    -1.8648    -0.4417 H       
  36 H36           -3.4310    -0.5593    -0.3256 H       
  37 H37           -3.4796     3.0926     0.1716 H       
  38 H38           -4.6976     0.7572    -1.3709 H       
  39 H39           -5.4165     2.3766    -1.2011 H       
  40 H40           -3.8901     2.1696    -2.0930 H       
  41 H41           -2.8049     1.1246     2.4304 H       
  42 H42           -6.5987     0.3067     4.2031 H       
  43 H43           -6.3852     1.8753     0.2387 H       
  44 H44            1.5072    -1.5087    -0.2760 H       
  45 H45            3.6407     2.6145     0.4197 H       
  46 H46            6.0861    -1.6455    -0.1202 H       
  47 H47            3.6303    -1.6284    -0.2060 H       
  48 H48            8.1929     2.0342    -1.1353 H       
  49 H49            8.0794    -1.1464     1.6904 H       
  50 H50           11.1944    -0.1815     2.2867 H       
  51 H51           10.7005    -1.7477     1.6002 H       
  52 H52           11.7539    -0.6589     0.6659 H       
  53 H53            4.8110     3.9208     1.5592 H       
  54 H54            6.1415     4.8674     0.8507 H       
  55 H55            4.8788     4.1822    -0.2001 H       
@<TRIPOS>BOND
   1    1    2 2
   2    1   16 1
   3    1    6 1
   4    2    3 1
   5    2   18 1
   6    3    4 2
   7    3   35 1
   8    4    5 1
   9    4   36 1
  10    5    6 am
  11    5    8 1
  12    6    7 2
  13    8    9 1
  14    8   10 1
  15    8   37 1
  16    9   38 1
  17    9   39 1
  18    9   40 1
  19   10   11 ar
  20   10   15 ar
  21   11   12 ar
  22   11   41 1
  23   12   13 ar
  24   12   32 1
  25   13   14 ar
  26   13   42 1
  27   14   15 ar
  28   14   31 1
  29   15   43 1
  30   16   17 2
  31   17   18 1
  32   17   19 1
  33   18   44 1
  34   19   20 ar
  35   19   24 ar
  36   20   21 ar
  37   20   45 1
  38   21   22 ar
  39   21   33 1
  40   22   23 ar
  41   22   25 1
  42   23   24 ar
  43   23   46 1
  44   24   47 1
  45   25   26 1
  46   25   29 1
  47   26   27 2
  48   26   48 1
  49   27   28 1
  50   28   29 2
  51   28   30 1
  52   29   49 1
  53   30   50 1
  54   30   51 1
  55   30   52 1
  56   33   34 1
  57   34   53 1
  58   34   54 1
  59   34   55 1

#	End of record

