#	Name: ASD07030073
#	Creating user name:	WinNT
#	Creation time:	15. 06. 2019 21:08

#	Modifying user name:	WinNT
#	Modification time:	15. 06. 2019 21:08

#	Program:	/corina/corina34_cracker 3.40 0067  02.08.2006

@<TRIPOS>MOLECULE
ASD07030073
  50   53    0    0    0
SMALL
NO_CHARGES


@<TRIPOS>ATOM
   1 C1            -0.0167     1.3788     0.0096 C.ar    
   2 C2             0.0021    -0.0041     0.0020 C.ar    
   3 C3            -1.1857    -0.7113     0.0100 C.ar    
   4 C4            -2.3919    -0.0366     0.0252 C.ar    
   5 C5            -2.4112     1.3459     0.0328 C.ar    
   6 C6            -1.2242     2.0537     0.0306 C.ar    
   7 Br7            1.6078     2.3468    -0.0007 Br      
   8 C8            -3.7266     2.0810     0.0493 C.3     
   9 O9            -4.1295     2.3061     1.4018 O.3     
  10 C10           -5.3039     2.9623     1.5946 C.ar    
  11 C11           -5.7556     3.2147     2.8818 C.ar    
  12 C12           -6.0502     3.3860     0.5046 C.ar    
  13 C13           -6.9494     3.8823     3.0752 C.ar    
  14 C14           -7.6939     4.2990     1.9871 C.ar    
  15 C15           -7.2433     4.0533     0.7032 C.ar    
  16 C16           -8.9962     5.0267     2.2010 C.3     
  17 C17           -9.1171     6.4409     1.6300 C.3     
  18 C18           -9.8718     5.2835     0.9729 C.3     
  19 N19           -7.9550     6.9856     0.9153 N.3     
  20 C20           -7.9577     8.4542     0.9480 C.3     
  21 C21           -6.7353     8.9834     0.1953 C.3     
  22 N22           -6.7380    10.4520     0.2280 N.3     
  23 C23           -5.5759    10.9966    -0.4867 C.3     
  24 C24           -5.6968    12.4109    -1.0577 C.3     
  25 C25           -4.8212    12.1540     0.1703 C.3     
  26 H26            0.9445    -0.5314    -0.0105 H       
  27 H27           -1.1711    -1.7912     0.0041 H       
  28 H28           -3.3197    -0.5894     0.0308 H       
  29 H29           -1.2393     3.1336     0.0368 H       
  30 H30           -3.6146     3.0379    -0.4605 H       
  31 H31           -4.4828     1.4841    -0.4605 H       
  32 H32           -5.1745     2.8891     3.7320 H       
  33 H33           -5.6985     3.1947    -0.4985 H       
  34 H34           -7.3016     4.0787     4.0770 H       
  35 H35           -7.8267     4.3797    -0.1450 H       
  36 H36           -9.5006     4.8201     3.1449 H       
  37 H37           -9.7015     7.1648     2.1980 H       
  38 H38           -9.5060     4.9262     0.0103 H       
  39 H39          -10.9527     5.2459     1.1087 H       
  40 H40           -7.0941     6.6171     1.2911 H       
  41 H41           -8.8657     8.8265     0.4736 H       
  42 H42           -7.9226     8.7947     1.9828 H       
  43 H43           -5.8273     8.6110     0.6696 H       
  44 H44           -6.7704     8.6429    -0.8396 H       
  45 H45           -7.5989    10.8204    -0.1478 H       
  46 H46           -4.9918    10.2727    -1.0550 H       
  47 H47           -5.1921    12.6175    -2.0015 H       
  48 H48           -6.6387    12.9372    -0.9031 H       
  49 H49           -5.1870    12.5114     1.1329 H       
  50 H50           -3.7403    12.1917     0.0346 H       
@<TRIPOS>BOND
   1    1    2 ar
   2    1    7 1
   3    1    6 ar
   4    2    3 ar
   5    2   26 1
   6    3    4 ar
   7    3   27 1
   8    4    5 ar
   9    4   28 1
  10    5    6 ar
  11    5    8 1
  12    6   29 1
  13    8    9 1
  14    8   30 1
  15    8   31 1
  16    9   10 1
  17   10   11 ar
  18   10   12 ar
  19   11   13 ar
  20   11   32 1
  21   12   15 ar
  22   12   33 1
  23   13   14 ar
  24   13   34 1
  25   14   15 ar
  26   14   16 1
  27   15   35 1
  28   16   17 1
  29   16   18 1
  30   16   36 1
  31   17   18 1
  32   17   19 1
  33   17   37 1
  34   18   38 1
  35   18   39 1
  36   19   20 1
  37   19   40 1
  38   20   21 1
  39   20   41 1
  40   20   42 1
  41   21   22 1
  42   21   43 1
  43   21   44 1
  44   22   23 1
  45   22   45 1
  46   23   24 1
  47   23   25 1
  48   23   46 1
  49   24   25 1
  50   24   47 1
  51   24   48 1
  52   25   49 1
  53   25   50 1

#	End of record

