#	Name: ASD01900548
#	Creating user name:	WinNT
#	Creation time:	15. 06. 2019 19:52

#	Modifying user name:	WinNT
#	Modification time:	15. 06. 2019 19:52

#	Program:	/corina/corina34_cracker 3.40 0067  02.08.2006

@<TRIPOS>MOLECULE
ASD01900548
  42   45    0    0    0
SMALL
NO_CHARGES


@<TRIPOS>ATOM
   1 O1            -0.0806     1.4331     0.0226 O.3     
   2 C2            -1.1951     1.6311     0.7579 C.2     
   3 C3            -1.0298     2.7822     1.4752 C.2     
   4 C4             0.2383     3.2838     1.1474 C.2     
   5 C5             0.7869     2.4272     0.2542 C.2     
   6 C6            -2.3753     0.7638     0.7825 C.2     
   7 O7            -3.3249     1.0480     1.4891 O.2     
   8 N8            -2.4099    -0.3489     0.0227 N.am    
   9 C9            -3.4942    -1.2284     0.1187 C.ar    
  10 C10           -4.7735    -0.7327     0.3361 C.ar    
  11 C11           -5.8434    -1.6010     0.4303 C.ar    
  12 C12           -5.6396    -2.9701     0.3075 C.ar    
  13 C13           -4.3613    -3.4647     0.0903 C.ar    
  14 C14           -3.2923    -2.5964    -0.0092 C.ar    
  15 C15           -8.4737    -5.2384    -0.0845 C.3     
  16 C16           -9.9072    -4.7698    -0.3518 C.3     
  17 C17          -10.8600    -5.5690     0.5427 C.3     
  18 C18          -10.5760    -5.2839     2.0176 C.3     
  19 C19           -9.1493    -5.7350     2.3670 C.3     
  20 N20           -8.2484    -5.1441     1.3741 N.am    
  21 C21           -7.1531    -4.4014     1.5514 C.2     
  22 N22           -6.7268    -3.8529     0.4036 N.am    
  23 C23           -7.4730    -4.2544    -0.6474 C.2     
  24 O24           -6.6072    -4.2409     2.6254 O.2     
  25 O25           -7.3635    -3.9001    -1.8017 O.2     
  26 Cl26          -7.4424    -0.9823     0.7026 Cl      
  27 Cl27           2.3560     2.5897    -0.4706 Cl      
  28 H28           -1.7386     3.2210     2.1618 H       
  29 H29            0.6918     4.1842     1.5347 H       
  30 H30           -1.6831    -0.5401    -0.5907 H       
  31 H31           -4.9314     0.3314     0.4319 H       
  32 H32           -4.2031    -4.5288    -0.0048 H       
  33 H33           -2.2982    -2.9815    -0.1823 H       
  34 H34           -8.3102    -6.2515    -0.4519 H       
  35 H35           -9.9937    -3.7079    -0.1213 H       
  36 H36          -10.1586    -4.9407    -1.3985 H       
  37 H37          -11.8882    -5.2888     0.3137 H       
  38 H38          -10.7265    -6.6334     0.3499 H       
  39 H39          -10.6746    -4.2148     2.2059 H       
  40 H40          -11.2900    -5.8277     2.6361 H       
  41 H41           -8.8834    -5.3841     3.3641 H       
  42 H42           -9.0840    -6.8223     2.3262 H       
@<TRIPOS>BOND
   1    1    2 1
   2    1    5 1
   3    2    3 2
   4    2    6 1
   5    3    4 1
   6    3   28 1
   7    4    5 2
   8    4   29 1
   9    5   27 1
  10    6    7 2
  11    6    8 am
  12    8    9 1
  13    8   30 1
  14    9   10 ar
  15    9   14 ar
  16   10   11 ar
  17   10   31 1
  18   11   12 ar
  19   11   26 1
  20   12   13 ar
  21   12   22 1
  22   13   14 ar
  23   13   32 1
  24   14   33 1
  25   15   16 1
  26   15   20 1
  27   15   23 1
  28   15   34 1
  29   16   17 1
  30   16   35 1
  31   16   36 1
  32   17   18 1
  33   17   37 1
  34   17   38 1
  35   18   19 1
  36   18   39 1
  37   18   40 1
  38   19   20 1
  39   19   41 1
  40   19   42 1
  41   20   21 am
  42   21   22 am
  43   21   24 2
  44   22   23 am
  45   23   25 2

#	End of record

