#	Name: ASD01915388
#	Creating user name:	WinNT
#	Creation time:	15. 06. 2019 20:05

#	Modifying user name:	WinNT
#	Modification time:	15. 06. 2019 20:05

#	Program:	/corina/corina34_cracker 3.40 0067  02.08.2006

@<TRIPOS>MOLECULE
ASD01915388
  44   47    0    0    0
SMALL
NO_CHARGES


@<TRIPOS>ATOM
   1 C1             0.0013     1.3492    -0.0642 C.ar    
   2 C2             0.0385    -0.0429    -0.0912 C.ar    
   3 N3             1.1987    -0.6865    -0.0941 N.ar    
   4 C4             2.3467    -0.0407    -0.0722 C.ar    
   5 C5             2.3834     1.3414    -0.0448 C.ar    
   6 C6             1.1928     2.0537    -0.0408 C.ar    
   7 C7             3.7040     2.0670    -0.0189 C.3     
   8 N8             4.7697     1.1505     0.4123 N.am    
   9 C9             5.7551     1.0253    -0.6771 C.3     
  10 C10            5.5973     2.3246    -1.5057 C.3     
  11 C11            4.0640     2.5524    -1.4389 C.3     
  12 C12            4.8353     0.5285     1.6062 C.2     
  13 O13            4.0190     0.7848     2.4715 O.2     
  14 C14            5.8907    -0.4575     1.8624 C.2     
  15 C15           -1.2296    -0.8124    -0.1165 C.ar    
  16 C16           -1.2014    -2.2052    -0.1437 C.ar    
  17 C17           -2.3857    -2.9182    -0.1667 C.ar    
  18 C18           -3.5989    -2.2500    -0.1633 C.ar    
  19 C19           -3.6317    -0.8657    -0.1363 C.ar    
  20 C20           -2.4524    -0.1446    -0.1074 C.ar    
  21 F21           -2.3595    -4.2687    -0.1930 F       
  22 C22            1.1966     3.5604    -0.0117 C.3     
  23 F23           -4.8179    -0.2190    -0.1336 F       
  24 C24            6.1440    -1.0685     3.0468 C.2     
  25 N25            7.1454    -1.9115     3.0124 N.2     
  26 C26            7.7600    -2.0593     1.8830 C.2     
  27 S27            7.0520    -1.0661     0.6851 S.3     
  28 H28           -0.9439     1.8718    -0.0660 H       
  29 H29            3.2717    -0.5983    -0.0754 H       
  30 H30            3.6471     2.9160     0.6623 H       
  31 H31            6.7638     0.9551    -0.2700 H       
  32 H32            5.5318     0.1536    -1.2922 H       
  33 H33            6.1358     3.1513    -1.0423 H       
  34 H34            5.9255     2.1743    -2.5342 H       
  35 H35            3.5520     1.9540    -2.1924 H       
  36 H36            3.8258     3.6095    -1.5570 H       
  37 H37           -0.2558    -2.7270    -0.1470 H       
  38 H38           -4.5220    -2.8102    -0.1820 H       
  39 H39           -2.4789     0.9349    -0.0861 H       
  40 H40            1.2059     3.9435    -1.0321 H       
  41 H41            0.3033     3.9161     0.5018 H       
  42 H42            2.0832     3.9114     0.5163 H       
  43 H43            5.5697    -0.8760     3.9410 H       
  44 H44            8.5985    -2.7201     1.7193 H       
@<TRIPOS>BOND
   1    1    2 ar
   2    1    6 ar
   3    1   28 1
   4    2    3 ar
   5    2   15 1
   6    3    4 ar
   7    4    5 ar
   8    4   29 1
   9    5    6 ar
  10    5    7 1
  11    6   22 1
  12    7    8 1
  13    7   11 1
  14    7   30 1
  15    8    9 1
  16    8   12 am
  17    9   10 1
  18    9   31 1
  19    9   32 1
  20   10   11 1
  21   10   33 1
  22   10   34 1
  23   11   35 1
  24   11   36 1
  25   12   13 2
  26   12   14 1
  27   14   24 2
  28   14   27 1
  29   15   16 ar
  30   15   20 ar
  31   16   17 ar
  32   16   37 1
  33   17   18 ar
  34   17   21 1
  35   18   19 ar
  36   18   38 1
  37   19   20 ar
  38   19   23 1
  39   20   39 1
  40   22   40 1
  41   22   41 1
  42   22   42 1
  43   24   25 1
  44   24   43 1
  45   25   26 2
  46   26   27 1
  47   26   44 1

#	End of record

