#	Name: ASD02508088
#	Creating user name:	WinNT
#	Creation time:	15. 06. 2019 20:23

#	Modifying user name:	WinNT
#	Modification time:	15. 06. 2019 20:23

#	Program:	/corina/corina34_cracker 3.40 0067  02.08.2006

@<TRIPOS>MOLECULE
ASD02508088
  40   42    0    0    0
SMALL
NO_CHARGES


@<TRIPOS>ATOM
   1 C1             0.3646     1.8573     0.2470 C.ar    
   2 C2             0.2160     0.4640     0.3179 C.ar    
   3 C3             1.6545     2.3635     0.0811 C.ar    
   4 C4             2.7538     1.5297    -0.0113 C.ar    
   5 C5             2.5856     0.1542     0.0610 C.ar    
   6 C6             1.3075    -0.3669     0.2267 C.ar    
   7 N7            -0.6258     2.8242     0.3164 N.am    
   8 C8            -0.2722     4.1099     0.2276 C.2     
   9 S9             1.4883     4.1240     0.0318 S.3     
  10 N10            3.6905    -0.6991    -0.0318 N.am    
  11 S11            3.8694    -1.9425     1.0472 S.o2    
  12 C12            4.0656    -1.2235     2.6438 C.ar    
  13 C13            5.1958    -0.4725     2.9327 C.ar    
  14 O14           -1.0111     5.0762     0.2697 O.2     
  15 O15            2.6294    -2.6362     1.0691 O.2     
  16 O16            5.1055    -2.5700     0.7350 O.2     
  17 C17           -2.0310     2.4448     0.4830 C.3     
  18 C18           -2.3653     2.3686     1.9740 C.3     
  19 C19            3.0917    -1.4026     3.6067 C.ar    
  20 C20            3.2454    -0.8381     4.8609 C.ar    
  21 C21            4.3744    -0.0936     5.1527 C.ar    
  22 C22            5.3481     0.0925     4.1903 C.ar    
  23 O23            6.1528    -0.2909     1.9847 O.3     
  24 C24            7.3389     0.3989     2.3841 C.3     
  25 Cl25           2.0197    -1.0640     6.0693 Cl      
  26 H26           -0.7684     0.0388     0.4460 H       
  27 H27            3.7411     1.9481    -0.1399 H       
  28 H28            1.1704    -1.4367     0.2836 H       
  29 H29            4.3518    -0.5623    -0.7281 H       
  30 H30           -2.6675     3.1897     0.0055 H       
  31 H31           -2.2017     1.4719     0.0221 H       
  32 H32           -1.7288     1.6237     2.4515 H       
  33 H33           -2.1946     3.3415     2.4349 H       
  34 H34           -3.4108     2.0863     2.0980 H       
  35 H35            2.2096    -1.9831     3.3807 H       
  36 H36            4.4924     0.3464     6.1319 H       
  37 H37            6.2294     0.6734     4.4186 H       
  38 H38            7.0721     1.3731     2.7939 H       
  39 H39            7.8602    -0.1842     3.1432 H       
  40 H40            7.9891     0.5340     1.5197 H       
@<TRIPOS>BOND
   1    1    2 ar
   2    1    3 ar
   3    1    7 1
   4    2    6 ar
   5    2   26 1
   6    3    4 ar
   7    3    9 1
   8    4    5 ar
   9    4   27 1
  10    5    6 ar
  11    5   10 1
  12    6   28 1
  13    7    8 am
  14    7   17 1
  15    8    9 1
  16    8   14 2
  17   10   11 am
  18   10   29 1
  19   11   12 1
  20   11   15 2
  21   11   16 2
  22   12   13 ar
  23   12   19 ar
  24   13   23 1
  25   13   22 ar
  26   17   18 1
  27   17   30 1
  28   17   31 1
  29   18   32 1
  30   18   33 1
  31   18   34 1
  32   19   20 ar
  33   19   35 1
  34   20   21 ar
  35   20   25 1
  36   21   22 ar
  37   21   36 1
  38   22   37 1
  39   23   24 1
  40   24   38 1
  41   24   39 1
  42   24   40 1

#	End of record

