#	Name: ASD08150482
#	Creating user name:	WinNT
#	Creation time:	15. 06. 2019 21:16

#	Modifying user name:	WinNT
#	Modification time:	15. 06. 2019 21:16

#	Program:	/corina/corina34_cracker 3.40 0067  02.08.2006

@<TRIPOS>MOLECULE
ASD08150482
  49   53    0    0    0
SMALL
NO_CHARGES


@<TRIPOS>ATOM
   1 N1            -0.5932     0.1362     1.9160 N.am    
   2 C2            -0.6923    -1.1797     1.6449 C.2     
   3 C3             0.4553    -1.9969     1.5963 C.2     
   4 C4             1.6831    -1.4646     1.8237 C.2     
   5 C5             1.7910    -0.0805     2.1087 C.ar    
   6 C6             3.0404     0.5219     2.3516 C.ar    
   7 N7             3.1370     1.7990     2.6139 N.ar    
   8 C8             2.0647     2.6039     2.6670 C.ar    
   9 C9             0.7677     2.0834     2.4356 C.ar    
  10 C10            0.6288     0.7050     2.1495 C.ar    
  11 C11           -0.3434     2.9306     2.4943 C.ar    
  12 C12           -0.1626     4.2737     2.7790 C.ar    
  13 C13            1.1235     4.7817     3.0063 C.ar    
  14 C14            2.2142     3.9707     2.9528 C.ar    
  15 O15           -1.7893    -1.6705     1.4392 O.2     
  16 C16           -1.3367     5.1797     2.8431 C.2     
  17 C17           -1.7485     0.9283     1.9533 C.ar    
  18 C18           -2.2649     1.4725     0.7869 C.ar    
  19 N19           -3.3524     2.2187     0.8149 N.ar    
  20 C20           -3.9896     2.4768     1.9444 C.ar    
  21 C21           -3.5310     1.9658     3.1523 C.ar    
  22 C22           -2.3969     1.1746     3.1626 C.ar    
  23 C23           -1.5055     6.2208     3.7090 C.2     
  24 N24           -2.6994     6.7864     3.4389 N.pl3   
  25 N25           -3.2879     6.0824     2.3813 N.2     
  26 C26           -2.4765     5.1250     2.0173 C.2     
  27 C27           -3.2808     7.9382     4.1328 C.3     
  28 O28           -5.1046     3.2504     1.9237 O.3     
  29 C29           -6.8542     4.4961     0.8157 C.3     
  30 C30           -5.5608     3.6968     0.6452 C.3     
  31 H31            0.3572    -3.0500     1.3778 H       
  32 H32            2.5650    -2.0870     1.7882 H       
  33 H33            3.9351    -0.0822     2.3210 H       
  34 H34           -1.3350     2.5404     2.3185 H       
  35 H35            1.2504     5.8313     3.2270 H       
  36 H36            3.1980     4.3790     3.1313 H       
  37 H37           -1.7710     1.2836    -0.1548 H       
  38 H38           -4.0560     2.1807     4.0713 H       
  39 H39           -2.0179     0.7637     4.0867 H       
  40 H40           -0.8092     6.5347     4.4725 H       
  41 H41           -2.6523     4.4115     1.2258 H       
  42 H42           -2.9732     8.8567     3.6330 H       
  43 H43           -4.3680     7.8618     4.1157 H       
  44 H44           -2.9339     7.9530     5.1660 H       
  45 H45           -7.6150     3.8629     1.2722 H       
  46 H46           -6.6669     5.3581     1.4560 H       
  47 H47           -7.2022     4.8366    -0.1595 H       
  48 H48           -4.7999     4.3300     0.1887 H       
  49 H49           -5.7481     2.8348     0.0049 H       
@<TRIPOS>BOND
   1    1    2 am
   2    1   10 1
   3    1   17 1
   4    2    3 1
   5    2   15 2
   6    3    4 2
   7    3   31 1
   8    4    5 1
   9    4   32 1
  10    5    6 ar
  11    5   10 ar
  12    6    7 ar
  13    6   33 1
  14    7    8 ar
  15    8    9 ar
  16    8   14 ar
  17    9   10 ar
  18    9   11 ar
  19   11   12 ar
  20   11   34 1
  21   12   13 ar
  22   12   16 1
  23   13   14 ar
  24   13   35 1
  25   14   36 1
  26   16   23 2
  27   16   26 1
  28   17   18 ar
  29   17   22 ar
  30   18   19 ar
  31   18   37 1
  32   19   20 ar
  33   20   21 ar
  34   20   28 1
  35   21   22 ar
  36   21   38 1
  37   22   39 1
  38   23   24 1
  39   23   40 1
  40   24   25 1
  41   24   27 1
  42   25   26 2
  43   26   41 1
  44   27   42 1
  45   27   43 1
  46   27   44 1
  47   28   30 1
  48   29   30 1
  49   29   45 1
  50   29   46 1
  51   29   47 1
  52   30   48 1
  53   30   49 1

#	End of record

