#	Name: ASD01940001
#	Creating user name:	WinNT
#	Creation time:	15. 06. 2019 20:11

#	Modifying user name:	WinNT
#	Modification time:	15. 06. 2019 20:11

#	Program:	/corina/corina34_cracker 3.40 0067  02.08.2006

@<TRIPOS>MOLECULE
ASD01940001
  44   46    0    0    0
SMALL
NO_CHARGES


@<TRIPOS>ATOM
   1 C1            -2.0341     2.1860     0.0864 C.ar    
   2 C2            -1.5916     0.8768     0.1193 C.ar    
   3 C3            -0.2389     0.6052     0.2071 C.ar    
   4 C4             0.6725     1.6425     0.2621 C.ar    
   5 C5             0.2305     2.9543     0.2287 C.ar    
   6 C6            -1.1245     3.2250     0.1408 C.ar    
   7 F7             1.1206     3.9692     0.2828 F       
   8 C8            -2.5845    -0.2553     0.0599 C.3     
   9 C9            -2.8250    -0.6378    -1.3778 C.2     
  10 C10           -3.7806     0.0604    -2.1447 C.2     
  11 O11           -4.0203    -0.2527    -3.4277 O.3     
  12 C12           -3.3560    -1.2532    -4.0450 C.ar    
  13 C13           -2.3882    -1.9917    -3.3388 C.ar    
  14 C14           -2.1179    -1.6520    -1.9399 C.2     
  15 C15           -3.6159    -1.5643    -5.3710 C.ar    
  16 C16           -2.9229    -2.5950    -5.9846 C.ar    
  17 C17           -1.9661    -3.3225    -5.2805 C.ar    
  18 C18           -1.6978    -3.0295    -3.9745 C.ar    
  19 O19           -4.4047     0.9706    -1.6296 O.2     
  20 C20           -1.0905    -2.4139    -1.1430 C.3     
  21 O21           -3.1787    -2.8990    -7.2833 O.3     
  22 C22           -2.6642    -2.0755    -8.2169 C.2     
  23 N23           -2.9668    -2.2587    -9.5174 N.am    
  24 C24           -2.4073    -1.3631   -10.5328 C.3     
  25 C25           -3.8553    -3.3533    -9.9157 C.3     
  26 O26           -1.9273    -1.1676    -7.8866 O.2     
  27 H27           -3.0908     2.3970     0.0136 H       
  28 H28            0.1056    -0.4180     0.2331 H       
  29 H29            1.7292     1.4301     0.3314 H       
  30 H30           -1.4704     4.2478     0.1143 H       
  31 H31           -2.1896    -1.1139     0.6031 H       
  32 H32           -3.5237     0.0610     0.5137 H       
  33 H33           -4.3564    -1.0052    -5.9236 H       
  34 H34           -1.4331    -4.1235    -5.7711 H       
  35 H35           -0.9549    -3.5969    -3.4336 H       
  36 H36           -0.6445    -3.1864    -1.7695 H       
  37 H37           -0.3139    -1.7291    -0.8024 H       
  38 H38           -1.5700    -2.8774    -0.2808 H       
  39 H39           -1.7755    -0.6170   -10.0509 H       
  40 H40           -1.8120    -1.9416   -11.2393 H       
  41 H41           -3.2180    -0.8643   -11.0639 H       
  42 H42           -4.8874    -3.0028    -9.9132 H       
  43 H43           -3.5889    -3.6915   -10.9171 H       
  44 H44           -3.7506    -4.1801    -9.2131 H       
@<TRIPOS>BOND
   1    1    2 ar
   2    1    6 ar
   3    1   27 1
   4    2    3 ar
   5    2    8 1
   6    3    4 ar
   7    3   28 1
   8    4    5 ar
   9    4   29 1
  10    5    6 ar
  11    5    7 1
  12    6   30 1
  13    8    9 1
  14    8   31 1
  15    8   32 1
  16    9   10 1
  17    9   14 2
  18   10   11 1
  19   10   19 2
  20   11   12 1
  21   12   13 ar
  22   12   15 ar
  23   13   14 1
  24   13   18 ar
  25   14   20 1
  26   15   16 ar
  27   15   33 1
  28   16   17 ar
  29   16   21 1
  30   17   18 ar
  31   17   34 1
  32   18   35 1
  33   20   36 1
  34   20   37 1
  35   20   38 1
  36   21   22 1
  37   22   23 am
  38   22   26 2
  39   23   24 1
  40   23   25 1
  41   24   39 1
  42   24   40 1
  43   24   41 1
  44   25   42 1
  45   25   43 1
  46   25   44 1

#	End of record

