#	Name: ASD03093014
#	Creating user name:	WinNT
#	Creation time:	15. 06. 2019 20:33

#	Modifying user name:	WinNT
#	Modification time:	15. 06. 2019 20:33

#	Program:	/corina/corina34_cracker 3.40 0067  02.08.2006

@<TRIPOS>MOLECULE
ASD03093014
  49   52    0    0    0
SMALL
NO_CHARGES


@<TRIPOS>ATOM
   1 C1            -0.2133     1.4229    -0.0041 C.2     
   2 C2            -0.4803     0.0848    -0.0345 C.2     
   3 C3            -1.8306    -0.2073    -0.0416 C.2     
   4 C4            -2.6455     0.8966    -0.0169 C.2     
   5 S5            -1.7189     2.3281     0.0229 S.3     
   6 C6            -2.3541    -1.5939    -0.0737 C.ar    
   7 C7            -3.3171    -1.9567    -1.0143 C.ar    
   8 C8            -3.8008    -3.2488    -1.0394 C.ar    
   9 C9            -3.3320    -4.1834    -0.1336 C.ar    
  10 C10           -2.3765    -3.8293     0.8020 C.ar    
  11 C11           -1.8813    -2.5416     0.8329 C.ar    
  12 N12           -4.0267     0.8541    -0.0183 N.3     
  13 C13           -4.5912     2.0898    -0.5801 C.3     
  14 C14           -6.1175     1.9761    -0.6179 C.3     
  15 O15           -6.6034     1.7094     0.7005 O.3     
  16 C16           -6.0744     0.5126     1.2778 C.3     
  17 C17           -4.5477     0.6115     1.3348 C.3     
  18 C18            1.0835     1.9959     0.0098 C.2     
  19 O19            2.0668     1.2775    -0.0057 O.2     
  20 N20            1.2280     3.3355     0.0402 N.am    
  21 C21            2.5035     3.8989     0.1444 C.ar    
  22 C22            3.5861     3.2905    -0.4776 C.ar    
  23 C23            4.8445     3.8498    -0.3731 C.ar    
  24 C24            5.0274     5.0143     0.3498 C.ar    
  25 C25            3.9516     5.6227     0.9704 C.ar    
  26 C26            2.6897     5.0714     0.8654 C.ar    
  27 C27            6.4020     5.6216     0.4621 C.3     
  28 H28            0.2895    -0.6725    -0.0518 H       
  29 H29           -3.6841    -1.2278    -1.7217 H       
  30 H30           -4.5471    -3.5310    -1.7674 H       
  31 H31           -3.7137    -5.1935    -0.1567 H       
  32 H32           -2.0145    -4.5630     1.5069 H       
  33 H33           -1.1350    -2.2663     1.5635 H       
  34 H34           -4.3046     2.9370     0.0430 H       
  35 H35           -4.2120     2.2363    -1.5914 H       
  36 H36           -6.5433     2.9118    -0.9803 H       
  37 H37           -6.4055     1.1625    -1.2835 H       
  38 H38           -6.4691     0.3898     2.2864 H       
  39 H39           -6.3612    -0.3436     0.6673 H       
  40 H40           -4.1368    -0.3212     1.7213 H       
  41 H41           -4.2605     1.4350     1.9885 H       
  42 H42            0.4472     3.9088    -0.0102 H       
  43 H43            3.4440     2.3807    -1.0421 H       
  44 H44            5.6868     3.3770    -0.8563 H       
  45 H45            4.0978     6.5321     1.5342 H       
  46 H46            1.8499     5.5472     1.3500 H       
  47 H47            6.5581     6.3218    -0.3585 H       
  48 H48            6.4896     6.1494     1.4118 H       
  49 H49            7.1527     4.8327     0.4144 H       
@<TRIPOS>BOND
   1    1    2 2
   2    1   18 1
   3    1    5 1
   4    2    3 1
   5    2   28 1
   6    3    4 2
   7    3    6 1
   8    4    5 1
   9    4   12 1
  10    6    7 ar
  11    6   11 ar
  12    7    8 ar
  13    7   29 1
  14    8    9 ar
  15    8   30 1
  16    9   10 ar
  17    9   31 1
  18   10   11 ar
  19   10   32 1
  20   11   33 1
  21   12   13 1
  22   12   17 1
  23   13   14 1
  24   13   34 1
  25   13   35 1
  26   14   15 1
  27   14   36 1
  28   14   37 1
  29   15   16 1
  30   16   17 1
  31   16   38 1
  32   16   39 1
  33   17   40 1
  34   17   41 1
  35   18   19 2
  36   18   20 am
  37   20   21 1
  38   20   42 1
  39   21   22 ar
  40   21   26 ar
  41   22   23 ar
  42   22   43 1
  43   23   24 ar
  44   23   44 1
  45   24   25 ar
  46   24   27 1
  47   25   26 ar
  48   25   45 1
  49   26   46 1
  50   27   47 1
  51   27   48 1
  52   27   49 1

#	End of record

