#	Name: ASD07980008
#	Creating user name:	WinNT
#	Creation time:	15. 06. 2019 21:14

#	Modifying user name:	WinNT
#	Modification time:	15. 06. 2019 21:14

#	Program:	/corina/corina34_cracker 3.40 0067  02.08.2006

@<TRIPOS>MOLECULE
ASD07980008
  56   55    0    0    0
SMALL
NO_CHARGES


@<TRIPOS>ATOM
   1 O1             0.1737    -7.5178     0.9767 O.3     
   2 O2            -0.9097    -9.1542    -0.0391 O.2     
   3 C3            -3.3790    -8.1911     0.0089 C.3     
   4 C4            -5.0920    -7.9413    -2.2195 C.3     
   5 C5            -6.3909    -7.0708    -4.5710 C.3     
   6 C6            -7.6952    -6.1231    -6.8896 C.3     
   7 C7            -2.2649    -7.3470     0.6311 C.3     
   8 C8            -4.6930    -7.4654     0.1418 C.2     
   9 C9            -9.4339    -4.9136    -8.7505 C.3     
  10 C10           -5.4514    -7.2856    -0.9111 C.2     
  11 C11           -6.2857    -8.6931    -2.7493 C.2     
  12 C12           -6.8291    -8.3407    -3.8881 C.2     
  13 C13           -5.8436    -7.3978    -5.9365 C.2     
  14 C14          -11.1565    -4.6418   -10.9679 C.3     
  15 C15           -6.3981    -6.8817    -7.0052 C.2     
  16 C16           -7.4784    -4.6910    -7.3056 C.2     
  17 C17           -8.2541    -4.1472    -8.2104 C.2     
  18 C18          -10.6750    -4.0653    -8.6447 C.2     
  19 C19          -11.4367    -3.8851    -9.6951 C.2     
  20 C20          -12.4168    -5.3233   -11.4350 C.2     
  21 C21          -12.3523    -3.8963   -13.4151 C.3     
  22 C22          -12.9175    -5.0392   -12.6117 C.2     
  23 C23           -0.9509    -8.0728     0.4982 C.2     
  24 C24          -11.7548    -4.4343   -14.7168 C.3     
  25 H25           -3.1617    -8.3589    -1.0460 H       
  26 H26           -3.4396    -9.1497     0.5242 H       
  27 H27           -4.7947    -7.1781    -2.9387 H       
  28 H28           -4.2658    -8.6349    -2.0634 H       
  29 H29           -7.2440    -6.3999    -4.6726 H       
  30 H30           -5.6168    -6.5866    -3.9757 H       
  31 H31           -8.4427    -6.5806    -7.5377 H       
  32 H32           -8.0426    -6.1529    -5.8568 H       
  33 H33           -2.2044    -6.3885     0.1157 H       
  34 H34           -2.4823    -7.1793     1.6860 H       
  35 H35           -5.0095    -7.0935     1.1051 H       
  36 H36           -9.2551    -5.1671    -9.7954 H       
  37 H37           -9.5685    -5.8280    -8.1727 H       
  38 H38           -6.3343    -6.6675    -0.8415 H       
  39 H39           -6.6934    -9.5223    -2.1902 H       
  40 H40           -7.5910    -8.9603    -4.3375 H       
  41 H41           -4.9942    -8.0577    -6.0340 H       
  42 H42          -10.8129    -3.9479   -11.7350 H       
  43 H43          -10.3858    -5.3902   -10.7834 H       
  44 H44           -5.9258    -6.9997    -7.9693 H       
  45 H45           -6.6836    -4.1130    -6.8577 H       
  46 H46           -8.0481    -3.1497    -8.5693 H       
  47 H47          -10.9365    -3.6060    -7.7029 H       
  48 H48          -12.2655    -3.1942    -9.6490 H       
  49 H49          -12.9073    -6.0459   -10.7996 H       
  50 H50          -13.1467    -3.1866   -13.6460 H       
  51 H51          -11.5747    -3.3960   -12.8379 H       
  52 H52          -13.7353    -5.6240   -13.0061 H       
  53 H53          -10.9604    -5.1439   -14.4860 H       
  54 H54          -12.5325    -4.9345   -15.2940 H       
  55 H55          -11.3460    -3.6076   -15.2979 H       
  56 H56            0.9923    -8.0211     0.8681 H       
@<TRIPOS>BOND
   1    1   23 1
   2    1   56 1
   3    2   23 2
   4    3    7 1
   5    3    8 1
   6    3   25 1
   7    3   26 1
   8    4   10 1
   9    4   11 1
  10    4   27 1
  11    4   28 1
  12    5   12 1
  13    5   13 1
  14    5   29 1
  15    5   30 1
  16    6   15 1
  17    6   16 1
  18    6   31 1
  19    6   32 1
  20    7   23 1
  21    7   33 1
  22    7   34 1
  23    8   10 2
  24    8   35 1
  25    9   17 1
  26    9   18 1
  27    9   36 1
  28    9   37 1
  29   10   38 1
  30   11   12 2
  31   11   39 1
  32   12   40 1
  33   13   15 2
  34   13   41 1
  35   14   19 1
  36   14   20 1
  37   14   42 1
  38   14   43 1
  39   15   44 1
  40   16   17 2
  41   16   45 1
  42   17   46 1
  43   18   19 2
  44   18   47 1
  45   19   48 1
  46   20   22 2
  47   20   49 1
  48   21   22 1
  49   21   24 1
  50   21   50 1
  51   21   51 1
  52   22   52 1
  53   24   53 1
  54   24   54 1
  55   24   55 1

#	End of record

