#	Name: ASD01816516
#	Creating user name:	WinNT
#	Creation time:	15. 06. 2019 19:35

#	Modifying user name:	WinNT
#	Modification time:	15. 06. 2019 19:35

#	Program:	/corina/corina34_cracker 3.40 0067  02.08.2006

@<TRIPOS>MOLECULE
ASD01816516
  61   66    0    0    0
SMALL
NO_CHARGES


@<TRIPOS>ATOM
   1 C1            -0.0755     1.6037    -0.6549 C.ar    
   2 C2            -0.0964     0.2184    -0.6405 C.ar    
   3 C3             1.0735    -0.5010    -0.5106 C.ar    
   4 C4             2.2896     0.1624    -0.3924 C.ar    
   5 C5             2.3074     1.5670    -0.4074 C.ar    
   6 C6             1.1211     2.2812    -0.5389 C.ar    
   7 N7             3.4670    -0.5536    -0.2613 N.pl3   
   8 C8             4.6696     0.0319    -0.1431 C.2     
   9 C9             4.8111     1.3973    -0.1448 C.2     
  10 C10            3.6087     2.2508    -0.2807 C.2     
  11 C11            5.9294     2.3294    -0.0395 C.2     
  12 N12            5.3951     3.5677    -0.1105 N.am    
  13 N13            4.0076     3.4899    -0.2542 N.2     
  14 C14            6.1271     4.7592    -0.0490 C.ar    
  15 O15            7.1096     2.0466     0.0876 O.2     
  16 C16            3.3979    -2.0169    -0.2504 C.3     
  17 C17            3.5210    -2.5361    -1.6598 C.ar    
  18 C18            4.7679    -2.8292    -2.1807 C.ar    
  19 C19            4.8839    -3.3047    -3.4723 C.ar    
  20 C20            3.7469    -3.4889    -4.2475 C.ar    
  21 C21            2.4963    -3.1942    -3.7215 C.ar    
  22 C22            2.3863    -2.7238    -2.4275 C.ar    
  23 N23            3.8615    -3.9709    -5.5588 N.pl3   
  24 C24            2.8403    -4.1945    -6.4166 C.2     
  25 C25            3.3683    -4.6558    -7.5740 C.2     
  26 C26            4.7577    -4.7164    -7.4197 C.2     
  27 N27            5.0546    -4.3006    -6.2148 N.2     
  28 C28            7.1512     4.9944    -0.9571 C.ar    
  29 C29            7.8713     6.1714    -0.8940 C.ar    
  30 C30            7.5739     7.1147     0.0721 C.ar    
  31 C31            6.5549     6.8833     0.9783 C.ar    
  32 C32            5.8271     5.7115     0.9168 C.ar    
  33 C33            4.7166     5.4605     1.9042 C.3     
  34 O34            3.4765     5.3366     1.2051 O.3     
  35 C35            5.0001     4.1683     2.6729 C.3     
  36 C36            4.6336     6.6305     2.8866 C.3     
  37 H37           -0.9981     2.1549    -0.7616 H       
  38 H38           -1.0377    -0.3032    -0.7315 H       
  39 H39            1.0446    -1.5806    -0.5003 H       
  40 H40            1.1364     3.3610    -0.5506 H       
  41 H41            5.5486    -0.5876    -0.0438 H       
  42 H42            4.2119    -2.4147     0.3557 H       
  43 H43            2.4434    -2.3325     0.1710 H       
  44 H44            5.6520    -2.6857    -1.5772 H       
  45 H45            5.8581    -3.5328    -3.8789 H       
  46 H46            1.6101    -3.3361    -4.3223 H       
  47 H47            1.4137    -2.4944    -2.0178 H       
  48 H48            1.7916    -4.0344    -6.2141 H       
  49 H49            2.8151    -4.9288    -8.4604 H       
  50 H50            5.4639    -5.0454    -8.1677 H       
  51 H51            7.3845     4.2576    -1.7116 H       
  52 H52            8.6678     6.3549    -1.5999 H       
  53 H53            8.1387     8.0340     0.1195 H       
  54 H54            6.3253     7.6220     1.7320 H       
  55 H55            2.7158     5.1735     1.7794 H       
  56 H56            5.9954     4.2191     3.1144 H       
  57 H57            4.2584     4.0449     3.4621 H       
  58 H58            4.9483     3.3205     1.9899 H       
  59 H59            4.4316     7.5511     2.3390 H       
  60 H60            3.8304     6.4490     3.6008 H       
  61 H61            5.5795     6.7251     3.4199 H       
@<TRIPOS>BOND
   1    1    2 ar
   2    1    6 ar
   3    1   37 1
   4    2    3 ar
   5    2   38 1
   6    3    4 ar
   7    3   39 1
   8    4    5 ar
   9    4    7 1
  10    5    6 ar
  11    5   10 1
  12    6   40 1
  13    7    8 1
  14    7   16 1
  15    8    9 2
  16    8   41 1
  17    9   10 1
  18    9   11 1
  19   10   13 2
  20   11   12 am
  21   11   15 2
  22   12   13 1
  23   12   14 1
  24   14   28 ar
  25   14   32 ar
  26   16   17 1
  27   16   42 1
  28   16   43 1
  29   17   18 ar
  30   17   22 ar
  31   18   19 ar
  32   18   44 1
  33   19   20 ar
  34   19   45 1
  35   20   21 ar
  36   20   23 1
  37   21   22 ar
  38   21   46 1
  39   22   47 1
  40   23   24 1
  41   23   27 1
  42   24   25 2
  43   24   48 1
  44   25   26 1
  45   25   49 1
  46   26   27 2
  47   26   50 1
  48   28   29 ar
  49   28   51 1
  50   29   30 ar
  51   29   52 1
  52   30   31 ar
  53   30   53 1
  54   31   32 ar
  55   31   54 1
  56   32   33 1
  57   33   34 1
  58   33   35 1
  59   33   36 1
  60   34   55 1
  61   35   56 1
  62   35   57 1
  63   35   58 1
  64   36   59 1
  65   36   60 1
  66   36   61 1

#	End of record

