#	Name: ASD01814600
#	Creating user name:	WinNT
#	Creation time:	15. 06. 2019 19:32

#	Modifying user name:	WinNT
#	Modification time:	15. 06. 2019 19:32

#	Program:	/corina/corina34_cracker 3.40 0067  02.08.2006

@<TRIPOS>MOLECULE
ASD01814600
  55   59    0    0    0
SMALL
NO_CHARGES


@<TRIPOS>ATOM
   1 C1             0.7772     0.9716    -1.9358 C.2     
   2 N2            -0.3091     1.2481    -2.7251 N.pl3   
   3 N3            -1.1437     0.1259    -2.7057 N.2     
   4 C4            -0.5981    -0.7983    -1.9410 C.2     
   5 C5             0.5992    -0.3148    -1.4408 C.2     
   6 C6            -0.8124    -2.1965    -1.4156 C.3     
   7 N7             0.3318    -2.5334    -0.5630 N.am    
   8 C8             1.2271    -1.3721    -0.5695 C.3     
   9 C9            -0.4032     2.4588    -3.3503 C.2     
  10 C10            0.5867     3.3694    -3.1767 C.2     
  11 C11            1.6829     3.0492    -2.3611 C.2     
  12 N12            1.7513     1.8771    -1.7752 N.2     
  13 C13            0.5255    -3.6917     0.0982 C.2     
  14 C14           -0.5242    -4.7270     0.0948 C.ar    
  15 O15            1.5661    -3.8828     0.6977 O.2     
  16 C16           -0.1857    -6.0754    -0.1000 C.ar    
  17 C17           -1.1839    -7.0414    -0.1006 C.ar    
  18 C18           -2.5008    -6.6748     0.0891 C.ar    
  19 C19           -2.8381    -5.3447     0.2817 C.ar    
  20 C20           -1.8611    -4.3730     0.2912 C.ar    
  21 Cl21           0.4989     4.9175    -3.9573 Cl      
  22 C22            2.7886     4.0535    -2.1618 C.3     
  23 C23           -1.5906     2.7782    -4.2216 C.3     
  24 N24            1.1403    -6.4416    -0.2916 N.3     
  25 C25            1.6458    -5.9366    -1.5758 C.3     
  26 C26            3.1282    -6.2919    -1.7127 C.3     
  27 N27            3.2901    -7.7498    -1.6228 N.3     
  28 C28            2.7846    -8.2548    -0.3387 C.3     
  29 C29            1.3022    -7.8995    -0.2018 C.3     
  30 C30            4.6926    -8.1371    -1.8255 C.3     
  31 H31           -1.7321    -2.2348    -0.8318 H       
  32 H32           -0.8726    -2.8985    -2.2474 H       
  33 H33            2.1983    -1.6560    -0.9748 H       
  34 H34            1.3459    -0.9921     0.4452 H       
  35 H35           -0.9293    -8.0802    -0.2500 H       
  36 H36           -3.2734    -7.4294     0.0871 H       
  37 H37           -3.8718    -5.0686     0.4289 H       
  38 H38           -2.1293    -3.3383     0.4460 H       
  39 H39            2.5604     4.6786    -1.2985 H       
  40 H40            3.7292     3.5295    -1.9924 H       
  41 H41            2.8759     4.6789    -3.0503 H       
  42 H42           -2.3721     3.2378    -3.6166 H       
  43 H43           -1.2880     3.4682    -5.0094 H       
  44 H44           -1.9704     1.8598    -4.6692 H       
  45 H45            1.0856    -6.3929    -2.3919 H       
  46 H46            1.5264    -4.8538    -1.6131 H       
  47 H47            3.4980    -5.9437    -2.6771 H       
  48 H48            3.6923    -5.8133    -0.9122 H       
  49 H49            2.9040    -9.3376    -0.3013 H       
  50 H50            3.3448    -7.7985     0.4775 H       
  51 H51            0.9324    -8.2477     0.7626 H       
  52 H52            0.7381    -8.3781    -1.0023 H       
  53 H53            5.3129    -7.6688    -1.0614 H       
  54 H54            4.7841    -9.2209    -1.7539 H       
  55 H55            5.0212    -7.8091    -2.8116 H       
@<TRIPOS>BOND
   1    1    5 2
   2    1   12 1
   3    1    2 1
   4    2    3 1
   5    2    9 1
   6    3    4 2
   7    4    6 1
   8    4    5 1
   9    5    8 1
  10    6    7 1
  11    6   31 1
  12    6   32 1
  13    7    8 1
  14    7   13 am
  15    8   33 1
  16    8   34 1
  17    9   10 2
  18    9   23 1
  19   10   11 1
  20   10   21 1
  21   11   12 2
  22   11   22 1
  23   13   14 1
  24   13   15 2
  25   14   16 ar
  26   14   20 ar
  27   16   17 ar
  28   16   24 1
  29   17   18 ar
  30   17   35 1
  31   18   19 ar
  32   18   36 1
  33   19   20 ar
  34   19   37 1
  35   20   38 1
  36   22   39 1
  37   22   40 1
  38   22   41 1
  39   23   42 1
  40   23   43 1
  41   23   44 1
  42   24   25 1
  43   24   29 1
  44   25   26 1
  45   25   45 1
  46   25   46 1
  47   26   27 1
  48   26   47 1
  49   26   48 1
  50   27   28 1
  51   27   30 1
  52   28   29 1
  53   28   49 1
  54   28   50 1
  55   29   51 1
  56   29   52 1
  57   30   53 1
  58   30   54 1
  59   30   55 1

#	End of record

