#	Name: ASD05730006
#	Creating user name:	WinNT
#	Creation time:	15. 06. 2019 21:02

#	Modifying user name:	WinNT
#	Modification time:	15. 06. 2019 21:02

#	Program:	/corina/corina34_cracker 3.40 0067  02.08.2006

@<TRIPOS>MOLECULE
ASD05730006
  56   59    0    0    0
SMALL
NO_CHARGES


@<TRIPOS>ATOM
   1 N1            -0.0152     1.3239     0.0076 N.ar    
   2 C2             0.0024    -0.0045     0.0075 C.ar    
   3 N3             1.1291    -0.7015     0.0053 N.ar    
   4 C4             2.3018    -0.0809     0.0030 C.ar    
   5 C5             2.3221     1.3313     0.0031 C.ar    
   6 C6             1.1057     2.0230     0.0055 C.ar    
   7 N7             3.4845    -0.7744     0.0012 N.am    
   8 C8             4.6645    -0.1291    -0.0007 C.2     
   9 C9             4.7418     1.2783    -0.0003 C.2     
  10 C10            3.6065     2.0250     0.0001 C.2     
  11 N11           -1.1997    -0.6849     0.0103 N.pl3   
  12 C12           -2.4032     0.0205     0.1317 C.ar    
  13 C13           -3.5375    -0.4206    -0.5370 C.ar    
  14 C14           -4.7241     0.2753    -0.4163 C.ar    
  15 C15           -4.7831     1.4151     0.3722 C.ar    
  16 C16           -3.6505     1.8564     1.0405 C.ar    
  17 C17           -2.4645     1.1583     0.9255 C.ar    
  18 O18           -5.9517     2.1004     0.4898 O.3     
  19 O19            5.6954    -0.7792    -0.0023 O.2     
  20 C20            3.4626    -2.2392     0.0016 C.3     
  21 C21           -7.3335     3.8974     1.3276 C.3     
  22 C22           -5.9404     3.2648     1.3180 C.3     
  23 N23           -8.2849     2.9768     1.9643 N.3     
  24 C24            4.1753    -2.7775    -1.2514 C.3     
  25 C25            5.3635    -3.6255    -0.7526 C.3     
  26 C26            4.9551    -4.0452     0.6814 C.3     
  27 C27            4.2426    -2.7790     1.2182 C.3     
  28 C28           -7.9721     2.7987     3.3886 C.3     
  29 C29           -9.6672     3.4397     1.7828 C.3     
  30 H30            1.0837     3.1027     0.0052 H       
  31 H31            5.7061     1.7646    -0.0015 H       
  32 H32            3.6532     3.1039     0.0001 H       
  33 H33           -1.2102    -1.6514    -0.0719 H       
  34 H34           -3.4916    -1.3076    -1.1515 H       
  35 H35           -5.6064    -0.0676    -0.9363 H       
  36 H36           -3.6972     2.7438     1.6542 H       
  37 H37           -1.5829     1.5018     1.4461 H       
  38 H38            2.4334    -2.5970     0.0284 H       
  39 H39           -7.3039     4.8329     1.8861 H       
  40 H40           -7.6497     4.0955     0.3034 H       
  41 H41           -5.6612     2.9855     2.3339 H       
  42 H42           -5.2185     3.9818     0.9269 H       
  43 H43            3.4922    -3.3971    -1.8323 H       
  44 H44            4.5374    -1.9488    -1.8599 H       
  45 H45            5.4968    -4.5040    -1.3838 H       
  46 H46            6.2753    -3.0287    -0.7303 H       
  47 H47            4.2698    -4.8924     0.6555 H       
  48 H48            5.8351    -4.2770     1.2814 H       
  49 H49            4.9735    -2.0455     1.5588 H       
  50 H50            3.5579    -3.0398     2.0252 H       
  51 H51           -8.0254     3.7622     3.8955 H       
  52 H52           -8.6917     2.1127     3.8355 H       
  53 H53           -6.9673     2.3891     3.4914 H       
  54 H54           -9.8946     3.4961     0.7183 H       
  55 H55          -10.3508     2.7401     2.2638 H       
  56 H56           -9.7818     4.4264     2.2316 H       
@<TRIPOS>BOND
   1    1    2 ar
   2    1    6 ar
   3    2    3 ar
   4    2   11 1
   5    3    4 ar
   6    4    5 ar
   7    4    7 1
   8    5    6 ar
   9    5   10 1
  10    6   30 1
  11    7    8 am
  12    7   20 1
  13    8    9 1
  14    8   19 2
  15    9   10 2
  16    9   31 1
  17   10   32 1
  18   11   12 1
  19   11   33 1
  20   12   13 ar
  21   12   17 ar
  22   13   14 ar
  23   13   34 1
  24   14   15 ar
  25   14   35 1
  26   15   16 ar
  27   15   18 1
  28   16   17 ar
  29   16   36 1
  30   17   37 1
  31   18   22 1
  32   20   24 1
  33   20   27 1
  34   20   38 1
  35   21   22 1
  36   21   23 1
  37   21   39 1
  38   21   40 1
  39   22   41 1
  40   22   42 1
  41   23   28 1
  42   23   29 1
  43   24   25 1
  44   24   43 1
  45   24   44 1
  46   25   26 1
  47   25   45 1
  48   25   46 1
  49   26   27 1
  50   26   47 1
  51   26   48 1
  52   27   49 1
  53   27   50 1
  54   28   51 1
  55   28   52 1
  56   28   53 1
  57   29   54 1
  58   29   55 1
  59   29   56 1

#	End of record

