#	Name: ASD04910094
#	Creating user name:	WinNT
#	Creation time:	15. 06. 2019 20:55

#	Modifying user name:	WinNT
#	Modification time:	15. 06. 2019 20:55

#	Program:	/corina/corina34_cracker 3.40 0067  02.08.2006

@<TRIPOS>MOLECULE
ASD04910094
  34   35    0    0    0
SMALL
NO_CHARGES


@<TRIPOS>ATOM
   1 C1             0.0095     1.4028     0.0071 C.ar    
   2 C2             0.0731     0.0224    -0.0262 C.ar    
   3 C3             1.3132    -0.5969    -0.0326 C.ar    
   4 C4             2.4491     0.1996    -0.0052 C.ar    
   5 C5             2.3067     1.5746     0.0273 C.ar    
   6 N6             1.1100     2.1287     0.0325 N.ar    
   7 C7            -1.3335     2.0865     0.0081 C.3     
   8 C8            -1.4267     3.0258     1.2122 C.3     
   9 C9            -2.8327     3.6249     1.2841 C.3     
  10 C10           -2.9259     4.5642     2.4882 C.3     
  11 O11           -1.4853     2.8399    -1.1966 O.3     
  12 C12           -2.7397     2.9343    -1.7113 C.ar    
  13 C13           -2.9737     3.7186    -2.8315 C.ar    
  14 C14           -4.2493     3.8127    -3.3532 C.ar    
  15 C15           -5.2929     3.1261    -2.7593 C.ar    
  16 C16           -5.0619     2.3436    -1.6424 C.ar    
  17 C17           -3.7868     2.2420    -1.1207 C.ar    
  18 I18           -7.2265     3.2722    -3.5523 I       
  19 Br19           4.1695    -0.5853    -0.0118 Br      
  20 H20           -0.8321    -0.5663    -0.0465 H       
  21 H21            1.3934    -1.6736    -0.0580 H       
  22 H22            3.1856     2.2019     0.0492 H       
  23 H23           -2.1226     1.3371     0.0699 H       
  24 H24           -1.2228     2.4670     2.1256 H       
  25 H25           -0.6954     3.8270     1.1055 H       
  26 H26           -3.0366     4.1837     0.3707 H       
  27 H27           -3.5640     2.8237     1.3908 H       
  28 H28           -3.9276     4.9910     2.5393 H       
  29 H29           -2.7220     4.0054     3.4015 H       
  30 H30           -2.1946     5.3654     2.3815 H       
  31 H31           -2.1592     4.2554    -3.2951 H       
  32 H32           -4.4320     4.4231    -4.2252 H       
  33 H33           -5.8783     1.8087    -1.1801 H       
  34 H34           -3.6061     1.6277    -0.2510 H       
@<TRIPOS>BOND
   1    1    2 ar
   2    1    6 ar
   3    1    7 1
   4    2    3 ar
   5    2   20 1
   6    3    4 ar
   7    3   21 1
   8    4    5 ar
   9    4   19 1
  10    5    6 ar
  11    5   22 1
  12    7    8 1
  13    7   11 1
  14    7   23 1
  15    8    9 1
  16    8   24 1
  17    8   25 1
  18    9   10 1
  19    9   26 1
  20    9   27 1
  21   10   28 1
  22   10   29 1
  23   10   30 1
  24   11   12 1
  25   12   13 ar
  26   12   17 ar
  27   13   14 ar
  28   13   31 1
  29   14   15 ar
  30   14   32 1
  31   15   16 ar
  32   15   18 1
  33   16   17 ar
  34   16   33 1
  35   17   34 1

#	End of record

