#	Name: ASD01180092
#	Creating user name:	WinNT
#	Creation time:	15. 06. 2019 19:06

#	Modifying user name:	WinNT
#	Modification time:	15. 06. 2019 19:06

#	Program:	/corina/corina34_cracker 3.40 0067  02.08.2006

@<TRIPOS>MOLECULE
ASD01180092
  59   61    0    0    0
SMALL
NO_CHARGES


@<TRIPOS>ATOM
   1 C1            -0.0184     1.5028     0.0103 C.2     
   2 C2             0.0021    -0.0041     0.0020 C.3     
   3 C3             1.4513    -0.4944    -0.0145 C.3     
   4 O4             1.0197     2.1211     0.0037 O.2     
   5 O5            -1.1898     2.1580     0.0194 O.3     
   6 N6             1.4712    -1.9592    -0.0225 N.am    
   7 C7             2.6473    -2.6171    -0.0373 C.2     
   8 C8             2.6674    -4.0954    -0.0454 C.ar    
   9 C9             3.8837    -4.7799    -0.0607 C.ar    
  10 C10            3.8954    -6.1594    -0.0677 C.ar    
  11 C11            2.7049    -6.8644    -0.0601 C.ar    
  12 C12            1.4958    -6.1920    -0.0450 C.ar    
  13 C13            1.4701    -4.8127    -0.0320 C.ar    
  14 O14            3.6916    -1.9951    -0.0439 O.2     
  15 C15            2.7254    -8.3712    -0.0689 C.3     
  16 C16            2.4957    -8.8926     1.3511 C.3     
  17 C17            2.6401   -10.4157     1.3646 C.3     
  18 C18            4.0825   -10.7943     1.0228 C.3     
  19 N19            1.6654    -8.8688    -0.9493 N.pl3   
  20 N20            2.8462   -10.8607    -1.2928 N.ar    
  21 C21            1.7802   -10.1213    -1.5333 C.ar    
  22 C22            0.7592   -10.5941    -2.3773 C.ar    
  23 N23            0.8502   -11.7756    -2.9379 N.ar    
  24 C24            1.9239   -12.5420    -2.7073 C.ar    
  25 C25            2.0451   -13.8120    -3.2954 C.ar    
  26 C26            3.1473   -14.5706    -3.0437 C.ar    
  27 C27            4.1611   -14.1061    -2.2090 C.ar    
  28 C28            4.0774   -12.8806    -1.6214 C.ar    
  29 C29            2.9551   -12.0696    -1.8582 C.ar    
  30 C30           -0.4506    -9.7347    -2.6393 C.3     
  31 C31            2.2886   -10.9490     2.7550 C.3     
  32 H32           -0.4983    -0.3791     0.8948 H       
  33 H33           -0.5153    -0.3696    -0.8850 H       
  34 H34            1.9516    -0.1193    -0.9073 H       
  35 H35            1.9686    -0.1289     0.8726 H       
  36 H36           -1.1523     3.1243     0.0245 H       
  37 H37            0.6378    -2.4556    -0.0172 H       
  38 H38            4.8137    -4.2307    -0.0674 H       
  39 H39            4.8359    -6.6902    -0.0796 H       
  40 H40            0.5700    -6.7482    -0.0391 H       
  41 H41            0.5257    -4.2891    -0.0157 H       
  42 H42            3.6924    -8.7193    -0.4318 H       
  43 H43            3.2317    -8.4519     2.0234 H       
  44 H44            1.4932    -8.6197     1.6806 H       
  45 H45            1.9657   -10.8512     0.6273 H       
  46 H46            4.1854   -11.8794     1.0324 H       
  47 H47            4.3329   -10.4145     0.0323 H       
  48 H48            4.7569   -10.3589     1.7601 H       
  49 H49            0.8833    -8.3222    -1.1236 H       
  50 H50            1.2667   -14.1853    -3.9445 H       
  51 H51            3.2367   -15.5467    -3.4973 H       
  52 H52            5.0255   -14.7268    -2.0250 H       
  53 H53            4.8708   -12.5334    -0.9762 H       
  54 H54           -0.2684    -9.1068    -3.5114 H       
  55 H55           -1.3156   -10.3716    -2.8245 H       
  56 H56           -0.6431    -9.1039    -1.7714 H       
  57 H57            1.2610   -10.6792     2.9985 H       
  58 H58            2.3915   -12.0341     2.7646 H       
  59 H59            2.9631   -10.5135     3.4923 H       
@<TRIPOS>BOND
   1    1    2 1
   2    1    4 2
   3    1    5 1
   4    2    3 1
   5    2   32 1
   6    2   33 1
   7    3    6 1
   8    3   34 1
   9    3   35 1
  10    5   36 1
  11    6    7 am
  12    6   37 1
  13    7    8 1
  14    7   14 2
  15    8    9 ar
  16    8   13 ar
  17    9   10 ar
  18    9   38 1
  19   10   11 ar
  20   10   39 1
  21   11   12 ar
  22   11   15 1
  23   12   13 ar
  24   12   40 1
  25   13   41 1
  26   15   16 1
  27   15   19 1
  28   15   42 1
  29   16   17 1
  30   16   43 1
  31   16   44 1
  32   17   18 1
  33   17   31 1
  34   17   45 1
  35   18   46 1
  36   18   47 1
  37   18   48 1
  38   19   21 1
  39   19   49 1
  40   20   21 ar
  41   20   29 ar
  42   21   22 ar
  43   22   23 ar
  44   22   30 1
  45   23   24 ar
  46   24   25 ar
  47   24   29 ar
  48   25   26 ar
  49   25   50 1
  50   26   27 ar
  51   26   51 1
  52   27   28 ar
  53   27   52 1
  54   28   29 ar
  55   28   53 1
  56   30   54 1
  57   30   55 1
  58   30   56 1
  59   31   57 1
  60   31   58 1
  61   31   59 1

#	End of record

