#	Name: ASD02198610
#	Creating user name:	WinNT
#	Creation time:	15. 06. 2019 20:19

#	Modifying user name:	WinNT
#	Modification time:	15. 06. 2019 20:19

#	Program:	/corina/corina34_cracker 3.40 0067  02.08.2006

@<TRIPOS>MOLECULE
ASD02198610
  49   52    0    0    0
SMALL
NO_CHARGES


@<TRIPOS>ATOM
   1 C1            -0.0439     1.5054    -0.1134 C.2     
   2 C2            -0.0746     0.1657     0.0994 C.2     
   3 N3             1.0692    -0.5368     0.2616 N.pl3   
   4 N4             2.2341    -0.0029     0.2275 N.2     
   5 C5             2.4065     1.2865     0.0290 C.2     
   6 C6             1.2214     2.1384    -0.1594 C.2     
   7 C7             0.9767    -1.9157     0.4780 C.ar    
   8 C8             1.5781    -2.4905     1.5985 C.ar    
   9 C9             1.4817    -3.8592     1.8067 C.ar    
  10 C10            0.7920    -4.6480     0.9062 C.ar    
  11 C11            0.1961    -4.0783    -0.2049 C.ar    
  12 C12            0.2816    -2.7161    -0.4180 C.ar    
  13 C13            3.7639     1.8678    -0.0037 C.2     
  14 N14            4.3064     2.6071    -1.0170 N.pl3   
  15 N15            5.6087     2.9575    -0.6395 N.2     
  16 C16            5.8522     2.4579     0.5459 C.2     
  17 C17            4.7195     1.7718     0.9840 C.2     
  18 C18            3.6736     2.9521    -2.2180 C.ar    
  19 C19            2.9061     2.0132    -2.8948 C.ar    
  20 O20            1.3252     3.3414    -0.3475 O.2     
  21 C21            3.8077     4.2353    -2.7316 C.ar    
  22 C22            3.1821     4.5725    -3.9158 C.ar    
  23 C23            2.4224     3.6339    -4.5898 C.ar    
  24 C24            2.2830     2.3566    -4.0785 C.ar    
  25 N25            2.2752    -1.6909     2.5071 N.3     
  26 C26           -0.5535    -4.9458    -1.1828 C.3     
  27 F27           -0.5074    -6.2772    -0.7556 F       
  28 F28           -1.8858    -4.5247    -1.2538 F       
  29 F29            0.0367    -4.8410    -2.4469 F       
  30 C30            1.6822    -1.7784     3.8483 C.3     
  31 C31            3.6999    -2.0476     2.5372 C.3     
  32 H32           -0.9549     2.0696    -0.2478 H       
  33 H33           -1.0248    -0.3460     0.1401 H       
  34 H34            1.9460    -4.3078     2.6725 H       
  35 H35            0.7180    -5.7129     1.0700 H       
  36 H36           -0.1852    -2.2750    -1.2864 H       
  37 H37            6.7759     2.5633     1.0955 H       
  38 H38            4.6132     1.2528     1.9251 H       
  39 H39            2.7969     1.0155    -2.4960 H       
  40 H40            4.4003     4.9690    -2.2053 H       
  41 H41            3.2859     5.5704    -4.3157 H       
  42 H42            1.9336     3.9003    -5.5153 H       
  43 H43            1.6890     1.6258    -4.6073 H       
  44 H44            1.7164    -2.8115     4.1940 H       
  45 H45            2.2442    -1.1464     4.5359 H       
  46 H46            0.6461    -1.4421     3.8100 H       
  47 H47            4.1307    -1.9070     1.5458 H       
  48 H48            4.2191    -1.4099     3.2527 H       
  49 H49            3.8072    -3.0905     2.8354 H       
@<TRIPOS>BOND
   1    1    2 2
   2    1    6 1
   3    1   32 1
   4    2    3 1
   5    2   33 1
   6    3    4 1
   7    3    7 1
   8    4    5 2
   9    5    6 1
  10    5   13 1
  11    6   20 2
  12    7    8 ar
  13    7   12 ar
  14    8    9 ar
  15    8   25 1
  16    9   10 ar
  17    9   34 1
  18   10   11 ar
  19   10   35 1
  20   11   12 ar
  21   11   26 1
  22   12   36 1
  23   13   14 1
  24   13   17 2
  25   14   15 1
  26   14   18 1
  27   15   16 2
  28   16   17 1
  29   16   37 1
  30   17   38 1
  31   18   21 ar
  32   18   19 ar
  33   19   24 ar
  34   19   39 1
  35   21   22 ar
  36   21   40 1
  37   22   23 ar
  38   22   41 1
  39   23   24 ar
  40   23   42 1
  41   24   43 1
  42   25   30 1
  43   25   31 1
  44   26   27 1
  45   26   28 1
  46   26   29 1
  47   30   44 1
  48   30   45 1
  49   30   46 1
  50   31   47 1
  51   31   48 1
  52   31   49 1

#	End of record

