#	Name: ASD03092379
#	Creating user name:	WinNT
#	Creation time:	15. 06. 2019 20:32

#	Modifying user name:	WinNT
#	Modification time:	15. 06. 2019 20:32

#	Program:	/corina/corina34_cracker 3.40 0067  02.08.2006

@<TRIPOS>MOLECULE
ASD03092379
  60   63    0    0    0
SMALL
NO_CHARGES


@<TRIPOS>ATOM
   1 C1             0.3383     1.9873     0.1446 C.2     
   2 C2             0.5507     0.5262     0.2229 C.ar    
   3 C3             1.8457     0.0061     0.2346 C.ar    
   4 C4             2.0369    -1.3604     0.3079 C.ar    
   5 C5             0.9455    -2.2124     0.3697 C.ar    
   6 C6            -0.3394    -1.7012     0.3584 C.ar    
   7 C7            -0.5430    -0.3380     0.2913 C.ar    
   8 O8             1.2926     2.7381     0.0901 O.2     
   9 N9            -0.9136     2.4863     0.1279 N.am    
  10 F10            3.2894    -1.8667     0.3190 F       
  11 C11           -1.1240     3.9340     0.0502 C.3     
  12 S12           -4.9831     4.7276    -0.6389 S.3     
  13 C13           -4.5796     4.5798     1.0156 C.2     
  14 N14           -3.3131     4.3231     1.1494 N.2     
  15 C15           -2.6022     4.2273     0.0467 C.2     
  16 C16           -3.3086     4.4139    -1.0877 C.2     
  17 C17           -1.4736     3.3021    -4.1756 C.ar    
  18 C18           -1.9540     3.3081    -2.8762 C.ar    
  19 C19           -2.7728     4.3639    -2.4623 C.ar    
  20 C20           -3.0713     5.3738    -3.3890 C.ar    
  21 C21           -2.5523     5.2900    -4.6612 C.ar    
  22 N22           -1.7818     4.2773    -5.0161 N.ar    
  23 C23           -2.8673     6.3700    -5.6639 C.3     
  24 O24           -0.6736     2.2875    -4.5901 O.3     
  25 C25           -0.2099     2.3373    -5.9408 C.3     
  26 N26           -5.4735     4.7149     2.0623 N.3     
  27 C27           -6.8266     5.0038     1.5655 C.3     
  28 C28           -7.7692     5.2043     2.7552 C.3     
  29 O29           -7.7344     4.0407     3.5860 O.3     
  30 C30           -6.4316     3.7304     4.0878 C.3     
  31 C31           -5.4755     3.5149     2.9116 C.3     
  32 C32           -6.4993     2.4557     4.9313 C.3     
  33 C33           -9.1948     5.4259     2.2458 C.3     
  34 H34            2.6963     0.6699     0.1861 H       
  35 H35            1.0992    -3.2799     0.4266 H       
  36 H36           -1.1858    -2.3704     0.4068 H       
  37 H37           -1.5472     0.0592     0.2870 H       
  38 H38           -1.6752     1.8869     0.1673 H       
  39 H39           -0.6601     4.4153     0.9112 H       
  40 H40           -0.6753     4.3178    -0.8660 H       
  41 H41           -1.7004     2.5103    -2.1938 H       
  42 H42           -3.7003     6.2056    -3.1082 H       
  43 H43           -2.1134     7.1547    -5.6016 H       
  44 H44           -2.8673     5.9450    -6.6677 H       
  45 H45           -3.8490     6.7914    -5.4477 H       
  46 H46            0.4181     1.4693    -6.1416 H       
  47 H47           -1.0637     2.3326    -6.6184 H       
  48 H48            0.3695     3.2479    -6.0928 H       
  49 H49           -6.8064     5.9101     0.9603 H       
  50 H50           -7.1779     4.1685     0.9596 H       
  51 H51           -7.4487     6.0725     3.3311 H       
  52 H52           -6.0722     4.5557     4.7025 H       
  53 H53           -5.8052     2.6559     2.3272 H       
  54 H54           -4.4690     3.3345     3.2891 H       
  55 H55           -6.8569     1.6308     4.3151 H       
  56 H56           -5.5061     2.2198     5.3135 H       
  57 H57           -7.1831     2.6085     5.7663 H       
  58 H58           -9.5148     4.5563     1.6717 H       
  59 H59           -9.8653     5.5686     3.0932 H       
  60 H60           -9.2199     6.3106     1.6096 H       
@<TRIPOS>BOND
   1    1    2 1
   2    1    8 2
   3    1    9 am
   4    2    3 ar
   5    2    7 ar
   6    3    4 ar
   7    3   34 1
   8    4    5 ar
   9    4   10 1
  10    5    6 ar
  11    5   35 1
  12    6    7 ar
  13    6   36 1
  14    7   37 1
  15    9   11 1
  16    9   38 1
  17   11   15 1
  18   11   39 1
  19   11   40 1
  20   12   13 1
  21   12   16 1
  22   13   14 2
  23   13   26 1
  24   14   15 1
  25   15   16 2
  26   16   19 1
  27   17   18 ar
  28   17   22 ar
  29   17   24 1
  30   18   19 ar
  31   18   41 1
  32   19   20 ar
  33   20   21 ar
  34   20   42 1
  35   21   22 ar
  36   21   23 1
  37   23   43 1
  38   23   44 1
  39   23   45 1
  40   24   25 1
  41   25   46 1
  42   25   47 1
  43   25   48 1
  44   26   27 1
  45   26   31 1
  46   27   28 1
  47   27   49 1
  48   27   50 1
  49   28   29 1
  50   28   33 1
  51   28   51 1
  52   29   30 1
  53   30   31 1
  54   30   32 1
  55   30   52 1
  56   31   53 1
  57   31   54 1
  58   32   55 1
  59   32   56 1
  60   32   57 1
  61   33   58 1
  62   33   59 1
  63   33   60 1

#	End of record

