#	Name: ASD03730277
#	Creating user name:	WinNT
#	Creation time:	15. 06. 2019 20:44

#	Modifying user name:	WinNT
#	Modification time:	15. 06. 2019 20:44

#	Program:	/corina/corina34_cracker 3.40 0067  02.08.2006

@<TRIPOS>MOLECULE
ASD03730277
  63   68    0    0    0
SMALL
NO_CHARGES


@<TRIPOS>ATOM
   1 N1            -0.4674     1.2459     1.2342 N.3     
   2 C2            -0.4108    -0.2335     1.2964 C.3     
   3 O3             0.6868    -0.5624     0.4260 O.3     
   4 C4             1.5294     0.5115     0.4371 C.ar    
   5 C5             0.8505     1.6300     0.9187 C.ar    
   6 C6             2.8591     0.6231     0.0669 C.ar    
   7 C7             3.5202     1.8436     0.1640 C.ar    
   8 C8             2.8247     2.9559     0.6281 C.ar    
   9 C9             1.5028     2.8486     1.0080 C.ar    
  10 O10            4.8169     2.1567    -0.1221 O.3     
  11 C11            3.7844     4.1143     0.5802 C.3     
  12 C12            4.9366     3.5830    -0.2838 C.3     
  13 N13            3.2764     6.3189     0.9043 N.am    
  14 C14            3.1622     5.3434    -0.0187 C.2     
  15 C15            4.2507     4.5297     1.9434 C.ar    
  16 C16            4.8917     3.8680     2.9815 C.ar    
  17 C17            5.1985     4.5533     4.1564 C.ar    
  18 C18            4.8618     5.8869     4.2787 C.ar    
  19 C19            4.2240     6.5445     3.2467 C.ar    
  20 C20            3.9103     5.8722     2.0667 C.ar    
  21 O21            2.6565     5.4392    -1.1170 O.2     
  22 C22           -0.8862     1.8114     2.5237 C.3     
  23 C23            0.2293     1.6162     3.5525 C.3     
  24 C24           -0.2068     2.2052     4.8956 C.3     
  25 C25            0.9086     2.0100     5.9244 C.3     
  26 C26            0.4725     2.5990     7.2675 C.3     
  27 C27            5.2494     2.4343     2.8414 C.ar    
  28 C28            6.1461     2.0337     1.8573 C.ar    
  29 C29            6.4776     0.6830     1.7318 C.ar    
  30 C30            5.9052    -0.2563     2.5967 C.ar    
  31 C31            5.0165     0.1517     3.5697 C.ar    
  32 C32            4.6907     1.4884     3.7004 C.ar    
  33 C33            7.4255     0.2487     0.6929 C.2     
  34 O34            7.9200     1.0643    -0.0557 O.2     
  35 C35            7.7815    -1.2096     0.5597 C.3     
  36 H36           -0.2076    -0.5677     2.3138 H       
  37 H37           -1.3387    -0.6693     0.9259 H       
  38 H38            3.3875    -0.2444    -0.2999 H       
  39 H39            0.9757     3.7164     1.3761 H       
  40 H40            5.8969     3.9358     0.0923 H       
  41 H41            4.8006     3.8669    -1.3274 H       
  42 H42            2.9564     7.2256     0.7763 H       
  43 H43            5.6969     4.0432     4.9674 H       
  44 H44            5.0990     6.4187     5.1883 H       
  45 H45            3.9656     7.5876     3.3543 H       
  46 H46           -1.0888     2.8758     2.4050 H       
  47 H47           -1.7889     1.3056     2.8662 H       
  48 H48            0.4320     0.5518     3.6712 H       
  49 H49            1.1321     2.1220     3.2100 H       
  50 H50           -0.4095     3.2696     4.7769 H       
  51 H51           -1.1096     1.6994     5.2381 H       
  52 H52            1.1113     0.9456     6.0431 H       
  53 H53            1.8114     2.5158     5.5819 H       
  54 H54            0.2698     3.6634     7.1488 H       
  55 H55           -0.4303     2.0932     7.6100 H       
  56 H56            1.2671     2.4600     8.0004 H       
  57 H57            6.5840     2.7638     1.1928 H       
  58 H58            6.1591    -1.3017     2.5021 H       
  59 H59            4.5768    -0.5763     4.2354 H       
  60 H60            3.9979     1.8010     4.4676 H       
  61 H61            7.2432    -1.7852     1.3127 H       
  62 H62            7.5042    -1.5619    -0.4338 H       
  63 H63            8.8544    -1.3363     0.7039 H       
@<TRIPOS>BOND
   1    1    2 1
   2    1    5 1
   3    1   22 1
   4    2    3 1
   5    2   36 1
   6    2   37 1
   7    3    4 1
   8    4    5 ar
   9    4    6 ar
  10    5    9 ar
  11    6    7 ar
  12    6   38 1
  13    7    8 ar
  14    7   10 1
  15    8    9 ar
  16    8   11 1
  17    9   39 1
  18   10   12 1
  19   11   12 1
  20   11   14 1
  21   11   15 1
  22   12   40 1
  23   12   41 1
  24   13   14 am
  25   13   20 1
  26   13   42 1
  27   14   21 2
  28   15   16 ar
  29   15   20 ar
  30   16   17 ar
  31   16   27 1
  32   17   18 ar
  33   17   43 1
  34   18   19 ar
  35   18   44 1
  36   19   20 ar
  37   19   45 1
  38   22   23 1
  39   22   46 1
  40   22   47 1
  41   23   24 1
  42   23   48 1
  43   23   49 1
  44   24   25 1
  45   24   50 1
  46   24   51 1
  47   25   26 1
  48   25   52 1
  49   25   53 1
  50   26   54 1
  51   26   55 1
  52   26   56 1
  53   27   28 ar
  54   27   32 ar
  55   28   29 ar
  56   28   57 1
  57   29   30 ar
  58   29   33 1
  59   30   31 ar
  60   30   58 1
  61   31   32 ar
  62   31   59 1
  63   32   60 1
  64   33   34 2
  65   33   35 1
  66   35   61 1
  67   35   62 1
  68   35   63 1

#	End of record

