#	Name: ASD01320118
#	Creating user name:	WinNT
#	Creation time:	15. 06. 2019 19:16

#	Modifying user name:	WinNT
#	Modification time:	15. 06. 2019 19:16

#	Program:	/corina/corina34_cracker 3.40 0067  02.08.2006

@<TRIPOS>MOLECULE
ASD01320118
  72   74    0    0    0
SMALL
NO_CHARGES


@<TRIPOS>ATOM
   1 N1             0.2917     2.8912     0.6150 N.am    
   2 C2            -0.4542     1.8583    -0.1082 C.3     
   3 C3            -0.6978     0.6833     0.8034 C.2     
   4 O4            -0.2902     0.7063     1.9406 O.2     
   5 O5            -1.3676    -0.3888     0.3521 O.3     
   6 C6            -1.5479     3.6222    -1.4992 C.3     
   7 C7            -1.7952     2.4293    -0.5737 C.3     
   8 O8            -2.5228     1.4218    -1.2791 O.3     
   9 C9            -3.9225     1.4071    -0.9919 C.3     
  10 C10           -4.5249     2.7748    -1.3199 C.3     
  11 C11           -4.6059     0.3323    -1.8397 C.3     
  12 C12           -4.1356     1.0986     0.4914 C.3     
  13 C13            1.6364     2.8292     0.6817 C.2     
  14 O14            2.2304     1.9162     0.1416 O.2     
  15 C15            2.3877     3.8696     1.4102 C.ar    
  16 C16            1.7036     4.8545     2.1030 C.ar    
  17 C17            2.4228     5.8405     2.7940 C.ar    
  18 C18            1.7600     6.8549     3.5081 C.ar    
  19 C19            2.4851     7.7979     4.1693 C.ar    
  20 C20            3.8784     7.7748     4.1504 C.ar    
  21 C21            4.5548     6.8091     3.4700 C.ar    
  22 C22            3.8417     5.8171     2.7749 C.ar    
  23 C23            4.5128     4.8077     2.0650 C.ar    
  24 C24            3.7999     3.8513     1.4014 C.ar    
  25 N25            4.4729     2.8488     0.7034 N.am    
  26 C26            5.5694     3.1508    -0.0197 C.2     
  27 O27            6.0229     4.2786     0.0061 O.2     
  28 N28            6.1631     2.2028    -0.7715 N.am    
  29 C29            7.3662     2.4828    -1.4289 C.ar    
  30 C30            8.4899     1.7042    -1.1851 C.ar    
  31 C31            8.4154     0.5560    -0.2119 C.3     
  32 C32            9.6758     1.9829    -1.8359 C.ar    
  33 C33            9.7450     3.0363    -2.7291 C.ar    
  34 C34           11.0407     3.3379    -3.4371 C.3     
  35 C35            8.6277     3.8132    -2.9744 C.ar    
  36 C36            7.4374     3.5364    -2.3307 C.ar    
  37 C37            6.2189     4.3804    -2.6025 C.3     
  38 H38           -0.1820     3.6218     1.0425 H       
  39 H39            0.1223     1.5330    -0.9741 H       
  40 H40           -1.4992    -1.1178     0.9736 H       
  41 H41           -1.0789     4.4285    -0.9353 H       
  42 H42           -0.8911     3.3194    -2.3147 H       
  43 H43           -2.4975     3.9686    -1.9071 H       
  44 H44           -2.3718     2.7547     0.2923 H       
  45 H45           -4.4094     2.9767    -2.3848 H       
  46 H46           -5.5840     2.7765    -1.0626 H       
  47 H47           -4.0103     3.5455    -0.7461 H       
  48 H48           -4.1768    -0.6420    -1.6060 H       
  49 H49           -5.6736     0.3211    -1.6206 H       
  50 H50           -4.4541     0.5522    -2.8964 H       
  51 H51           -3.6487     1.8643     1.0954 H       
  52 H52           -5.2033     1.0874     0.7105 H       
  53 H53           -3.7065     0.1242     0.7251 H       
  54 H54            0.6237     4.8635     2.1108 H       
  55 H55            0.6807     6.8856     3.5313 H       
  56 H56            1.9733     8.5757     4.7165 H       
  57 H57            4.4301     8.5350     4.6835 H       
  58 H58            5.6347     6.8051     3.4643 H       
  59 H59            5.5924     4.7861     2.0475 H       
  60 H60            4.1518     1.9341     0.7385 H       
  61 H61            5.7564     1.3263    -0.8568 H       
  62 H62            8.1263    -0.3514    -0.7420 H       
  63 H63            9.3903     0.4102     0.2533 H       
  64 H64            7.6757     0.7789     0.5570 H       
  65 H65           10.5501     1.3777    -1.6468 H       
  66 H66           11.0820     2.7800    -4.3726 H       
  67 H67           11.0995     4.4057    -3.6480 H       
  68 H68           11.8778     3.0462    -2.8028 H       
  69 H69            8.6849     4.6353    -3.6725 H       
  70 H70            6.2666     5.2906    -2.0046 H       
  71 H71            6.1865     4.6418    -3.6602 H       
  72 H72            5.3222     3.8194    -2.3392 H       
@<TRIPOS>BOND
   1    1    2 1
   2    1   13 am
   3    1   38 1
   4    2    3 1
   5    2    7 1
   6    2   39 1
   7    3    4 2
   8    3    5 1
   9    5   40 1
  10    6    7 1
  11    6   41 1
  12    6   42 1
  13    6   43 1
  14    7    8 1
  15    7   44 1
  16    8    9 1
  17    9   10 1
  18    9   11 1
  19    9   12 1
  20   10   45 1
  21   10   46 1
  22   10   47 1
  23   11   48 1
  24   11   49 1
  25   11   50 1
  26   12   51 1
  27   12   52 1
  28   12   53 1
  29   13   14 2
  30   13   15 1
  31   15   16 ar
  32   15   24 ar
  33   16   17 ar
  34   16   54 1
  35   17   18 ar
  36   17   22 ar
  37   18   19 ar
  38   18   55 1
  39   19   20 ar
  40   19   56 1
  41   20   21 ar
  42   20   57 1
  43   21   22 ar
  44   21   58 1
  45   22   23 ar
  46   23   24 ar
  47   23   59 1
  48   24   25 1
  49   25   26 am
  50   25   60 1
  51   26   27 2
  52   26   28 am
  53   28   29 1
  54   28   61 1
  55   29   30 ar
  56   29   36 ar
  57   30   31 1
  58   30   32 ar
  59   31   62 1
  60   31   63 1
  61   31   64 1
  62   32   33 ar
  63   32   65 1
  64   33   34 1
  65   33   35 ar
  66   34   66 1
  67   34   67 1
  68   34   68 1
  69   35   36 ar
  70   35   69 1
  71   36   37 1
  72   37   70 1
  73   37   71 1
  74   37   72 1

#	End of record

