#	Name: ASD00100165
#	Creating user name:	WinNT
#	Creation time:	15. 06. 2019 18:30

#	Modifying user name:	WinNT
#	Modification time:	15. 06. 2019 18:30

#	Program:	/corina/corina34_cracker 3.40 0067  02.08.2006

@<TRIPOS>MOLECULE
ASD00100165
  63   67    0    0    0
SMALL
NO_CHARGES


@<TRIPOS>ATOM
   1 C1             7.7975     1.0102     2.0954 C.ar    
   2 C2             6.7255     1.7415     1.5877 C.ar    
   3 C3             5.6757     1.0874     0.9754 C.ar    
   4 C4             5.6861    -0.2914     0.8657 C.ar    
   5 C5             6.7475    -1.0223     1.3683 C.ar    
   6 C6             7.8030    -0.3785     1.9817 C.ar    
   7 C7             8.9320     1.7084     2.7492 C.ar    
   8 C8            10.0039     0.9772     3.2569 C.ar    
   9 C9            11.0565     1.6317     3.8642 C.ar    
  10 C10           11.0482     3.0109     3.9696 C.ar    
  11 C11            9.9865     3.7417     3.4678 C.ar    
  12 C12            8.9318     3.0979     2.8527 C.ar    
  13 S13            4.3422    -1.1199     0.0833 S.o2    
  14 O14            4.3918    -2.4699     0.5241 O.2     
  15 O15            3.2032    -0.2877     0.2548 O.2     
  16 N16            4.6617    -1.1464    -1.5413 N.am    
  17 C17            4.7315     0.0500    -2.2590 C.ar    
  18 C18            5.7814     0.2714    -3.1381 C.ar    
  19 C19            5.8466     1.4656    -3.8512 C.ar    
  20 C20            4.8564     2.4319    -3.6776 C.ar    
  21 C21            3.8150     2.2039    -2.8009 C.ar    
  22 C22            3.7461     1.0165    -2.0968 C.ar    
  23 C23            8.7900     1.4053    -5.9357 C.2     
  24 N24            7.9899     0.8575    -5.0539 N.2     
  25 C25            6.9667     1.7093    -4.7927 C.2     
  26 C26            7.1488     2.8226    -5.5451 C.2     
  27 N27            8.3012     2.6312    -6.2679 N.pl3   
  28 C28            8.8949     3.5732    -7.2199 C.3     
  29 C29            8.4350     3.2350    -8.6145 C.ar    
  30 C30            7.2066     3.6915    -9.0704 C.ar    
  31 C31            6.7860     3.3784   -10.3546 C.ar    
  32 C32            7.5909     2.6131   -11.1765 C.ar    
  33 C33            8.8141     2.1590   -10.7197 C.ar    
  34 C34            9.2384     2.4750    -9.4420 C.ar    
  35 O35            6.4166     4.4438    -8.2600 O.3     
  36 C36            5.1654     4.8791    -8.7958 C.3     
  37 N37            9.9451     0.8337    -6.4413 N.pl3   
  38 H38            6.7161     2.8180     1.6734 H       
  39 H39            4.8443     1.6531     0.5815 H       
  40 H40            6.7504    -2.0987     1.2803 H       
  41 H41            8.6316    -0.9500     2.3732 H       
  42 H42           10.0110    -0.0997     3.1758 H       
  43 H43           11.8878     1.0659     4.2580 H       
  44 H44           11.8737     3.5190     4.4458 H       
  45 H45            9.9850     4.8183     3.5531 H       
  46 H46            8.1057     3.6698     2.4566 H       
  47 H47            4.8003    -1.9927    -1.9946 H       
  48 H48            6.5460    -0.4800    -3.2689 H       
  49 H49            4.9046     3.3592    -4.2291 H       
  50 H50            3.0494     2.9539    -2.6678 H       
  51 H51            2.9268     0.8411    -1.4154 H       
  52 H52            6.5103     3.6933    -5.5709 H       
  53 H53            8.5827     4.5873    -6.9702 H       
  54 H54            9.9816     3.5047    -7.1690 H       
  55 H55            5.8302     3.7323   -10.7117 H       
  56 H56            7.2639     2.3690   -12.1765 H       
  57 H57            9.4415     1.5603   -11.3635 H       
  58 H58           10.1965     2.1231    -9.0892 H       
  59 H59            4.6352     5.4687    -8.0478 H       
  60 H60            5.3420     5.4896    -9.6813 H       
  61 H61            4.5645     4.0110    -9.0669 H       
  62 H62           10.1801    -0.0768    -6.2030 H       
  63 H63           10.5194     1.3436    -7.0338 H       
@<TRIPOS>BOND
   1    1    2 ar
   2    1    6 ar
   3    1    7 1
   4    2    3 ar
   5    2   38 1
   6    3    4 ar
   7    3   39 1
   8    4    5 ar
   9    4   13 1
  10    5    6 ar
  11    5   40 1
  12    6   41 1
  13    7    8 ar
  14    7   12 ar
  15    8    9 ar
  16    8   42 1
  17    9   10 ar
  18    9   43 1
  19   10   11 ar
  20   10   44 1
  21   11   12 ar
  22   11   45 1
  23   12   46 1
  24   13   14 2
  25   13   15 2
  26   13   16 am
  27   16   17 1
  28   16   47 1
  29   17   18 ar
  30   17   22 ar
  31   18   19 ar
  32   18   48 1
  33   19   20 ar
  34   19   25 1
  35   20   21 ar
  36   20   49 1
  37   21   22 ar
  38   21   50 1
  39   22   51 1
  40   23   24 2
  41   23   27 1
  42   23   37 1
  43   24   25 1
  44   25   26 2
  45   26   27 1
  46   26   52 1
  47   27   28 1
  48   28   29 1
  49   28   53 1
  50   28   54 1
  51   29   30 ar
  52   29   34 ar
  53   30   31 ar
  54   30   35 1
  55   31   32 ar
  56   31   55 1
  57   32   33 ar
  58   32   56 1
  59   33   34 ar
  60   33   57 1
  61   34   58 1
  62   35   36 1
  63   36   59 1
  64   36   60 1
  65   36   61 1
  66   37   62 1
  67   37   63 1

#	End of record

