#	Name: ASD08710114
#	Creating user name:	WinNT
#	Creation time:	15. 06. 2019 21:19

#	Modifying user name:	WinNT
#	Modification time:	15. 06. 2019 21:19

#	Program:	/corina/corina34_cracker 3.40 0067  02.08.2006

@<TRIPOS>MOLECULE
ASD08710114
  16   16    0    0    0
SMALL
NO_CHARGES


@<TRIPOS>ATOM
   1 C1            -0.0106     1.2033    -0.0663 C.2     
   2 O2             0.0091    -0.0093    -0.0914 O.2     
   3 C3             2.4766     1.2962     0.0903 C.ar    
   4 C4             1.2530     1.9600    -0.0358 C.ar    
   5 C5             1.2493     3.3586    -0.1333 C.ar    
   6 C6             2.4635     4.0209    -0.1000 C.ar    
   7 C7             3.6310     3.2897     0.0271 C.ar    
   8 N8             3.6051     1.9732     0.1169 N.ar    
   9 C9             2.5036    -0.2064     0.2028 C.3     
  10 Cl10          -1.5277     2.0472    -0.0734 Cl      
  11 H11            0.3229     3.9047    -0.2322 H       
  12 H12            2.4996     5.0978    -0.1729 H       
  13 H13            4.5798     3.8049     0.0533 H       
  14 H14            2.4539    -0.6463    -0.7932 H       
  15 H15            3.4267    -0.5176     0.6919 H       
  16 H16            1.6497    -0.5420     0.7912 H       
@<TRIPOS>BOND
   1    1    2 2
   2    1    4 1
   3    1   10 1
   4    3    4 ar
   5    3    8 ar
   6    3    9 1
   7    4    5 ar
   8    5    6 ar
   9    5   11 1
  10    6    7 ar
  11    6   12 1
  12    7    8 ar
  13    7   13 1
  14    9   14 1
  15    9   15 1
  16    9   16 1

#	End of record

