#	Name: ASD02560522
#	Creating user name:	WinNT
#	Creation time:	15. 06. 2019 20:25

#	Modifying user name:	WinNT
#	Modification time:	15. 06. 2019 20:25

#	Program:	/corina/corina34_cracker 3.40 0067  02.08.2006

@<TRIPOS>MOLECULE
ASD02560522
  57   61    0    0    0
SMALL
NO_CHARGES


@<TRIPOS>ATOM
   1 C1             2.3379     1.4918     1.5783 C.2     
   2 C2             2.2965     0.2804     2.2803 C.2     
   3 C3             2.3389    -0.9043     1.6072 C.2     
   4 N4             2.4225    -0.9201     0.2325 N.pl3   
   5 C5             2.4642     0.2609    -0.4739 C.2     
   6 C6             2.4206     1.4880     0.2191 C.2     
   7 C7             2.4790    -1.9403    -0.6754 C.2     
   8 C8             2.5543    -1.3590    -1.9245 C.2     
   9 N9             2.5430    -0.0233    -1.7639 N.2     
  10 C10            2.6338    -2.0797    -3.2166 C.ar    
  11 N11            2.4634    -3.3058    -0.3935 N.3     
  12 C12            3.7272    -3.9399    -0.7916 C.3     
  13 C13            1.7905    -3.1613    -3.4679 C.ar    
  14 C14            3.5492    -1.6751    -4.1897 C.ar    
  15 C15            4.7617    -3.7579     0.3209 C.3     
  16 C16            3.4949    -5.4328    -1.0328 C.3     
  17 C17            4.8113    -6.0934    -1.4474 C.3     
  18 C18            5.8458    -5.9114    -0.3349 C.3     
  19 C19            6.0781    -4.4184    -0.0938 C.3     
  20 C20            1.8688    -3.8285    -4.6735 C.ar    
  21 C21            2.7814    -3.4266    -5.6322 C.ar    
  22 C22            3.6177    -2.3508    -5.3917 C.ar    
  23 Cl23           4.5986    -0.3252    -3.8893 Cl      
  24 C24            2.2953    -2.1761     2.3552 C.ar    
  25 C25            1.1580    -2.9856     2.2953 C.ar    
  26 C26            1.1219    -4.1723     2.9949 C.ar    
  27 C27            2.2138    -4.5641     3.7587 C.ar    
  28 C28            3.3465    -3.7625     3.8212 C.ar    
  29 C29            3.3934    -2.5767     3.1206 C.ar    
  30 O30            2.1737    -5.7346     4.4471 O.3     
  31 C31            3.2929    -6.0338     5.2837 C.3     
  32 H32            2.2997     2.4285     2.1146 H       
  33 H33            2.2313     0.2850     3.3583 H       
  34 H34            2.4523     2.4202    -0.3254 H       
  35 H35            2.2674    -3.4713     0.5823 H       
  36 H36            4.0935    -3.4766    -1.7077 H       
  37 H37            1.0777    -3.4766    -2.7203 H       
  38 H38            4.9272    -2.6944     0.4927 H       
  39 H39            4.3955    -4.2213     1.2370 H       
  40 H40            3.1287    -5.8962    -0.1166 H       
  41 H41            2.7579    -5.5625    -1.8253 H       
  42 H42            4.6458    -7.1569    -1.6192 H       
  43 H43            5.1775    -5.6300    -2.3635 H       
  44 H44            5.4795    -6.3747     0.5812 H       
  45 H45            6.7835    -6.3819    -0.6303 H       
  46 H46            6.4443    -3.9551    -1.0099 H       
  47 H47            6.8151    -4.2888     0.6988 H       
  48 H48            1.2162    -4.6666    -4.8688 H       
  49 H49            2.8388    -3.9523    -6.5738 H       
  50 H50            4.3279    -2.0415    -6.1443 H       
  51 H51            0.3084    -2.6815     1.7019 H       
  52 H52            0.2431    -4.7984     2.9494 H       
  53 H53            4.1933    -4.0710     4.4164 H       
  54 H54            4.2744    -1.9540     3.1698 H       
  55 H55            4.1918    -6.1155     4.6726 H       
  56 H56            3.4226    -5.2368     6.0160 H       
  57 H57            3.1181    -6.9773     5.8008 H       
@<TRIPOS>BOND
   1    1    2 1
   2    1    6 2
   3    1   32 1
   4    2    3 2
   5    2   33 1
   6    3    4 1
   7    3   24 1
   8    4    5 1
   9    4    7 1
  10    5    6 1
  11    5    9 2
  12    6   34 1
  13    7    8 2
  14    7   11 1
  15    8    9 1
  16    8   10 1
  17   10   13 ar
  18   10   14 ar
  19   11   12 1
  20   11   35 1
  21   12   16 1
  22   12   15 1
  23   12   36 1
  24   13   20 ar
  25   13   37 1
  26   14   23 1
  27   14   22 ar
  28   15   19 1
  29   15   38 1
  30   15   39 1
  31   16   17 1
  32   16   40 1
  33   16   41 1
  34   17   18 1
  35   17   42 1
  36   17   43 1
  37   18   19 1
  38   18   44 1
  39   18   45 1
  40   19   46 1
  41   19   47 1
  42   20   21 ar
  43   20   48 1
  44   21   22 ar
  45   21   49 1
  46   22   50 1
  47   24   25 ar
  48   24   29 ar
  49   25   26 ar
  50   25   51 1
  51   26   27 ar
  52   26   52 1
  53   27   28 ar
  54   27   30 1
  55   28   29 ar
  56   28   53 1
  57   29   54 1
  58   30   31 1
  59   31   55 1
  60   31   56 1
  61   31   57 1

#	End of record

