#	Name: ASD01882609
#	Creating user name:	WinNT
#	Creation time:	15. 06. 2019 19:44

#	Modifying user name:	WinNT
#	Modification time:	15. 06. 2019 19:44

#	Program:	/corina/corina34_cracker 3.40 0067  02.08.2006

@<TRIPOS>MOLECULE
ASD01882609
  50   51    0    0    0
SMALL
NO_CHARGES


@<TRIPOS>ATOM
   1 C1            -0.0167     1.3795     0.0096 C.ar    
   2 C2             0.0021    -0.0041     0.0020 C.ar    
   3 C3             1.2061    -0.6856    -0.0131 C.ar    
   4 C4             2.3967     0.0113    -0.0207 C.ar    
   5 C5             2.3848     1.4070    -0.0131 C.ar    
   6 C6             1.1667     2.0884     0.0021 C.ar    
   7 C7            -1.2946    -0.7720     0.0108 C.3     
   8 C8            -1.7477    -1.0241    -1.4287 C.3     
   9 C9             3.6576     2.1608    -0.0207 C.2     
  10 C10            4.5460     2.0801     1.0687 C.2     
  11 C11            5.7065     2.7752     1.0475 C.2     
  12 N12            6.0416     3.5589    -0.0089 N.am    
  13 C13            5.2329     3.6755    -1.0785 C.2     
  14 C14            4.0063     2.9666    -1.1177 C.2     
  15 O15            5.5575     4.3861    -2.0145 O.2     
  16 C16            3.1340     3.0787    -2.2478 C.1     
  17 N17            2.4420     3.1676    -3.1443 N.1     
  18 C18            7.3092     4.2930     0.0158 C.3     
  19 C19            8.4118     3.4274    -0.5974 C.3     
  20 C20            9.7356     4.1941    -0.5717 C.3     
  21 C21           10.8612     3.2850    -1.0690 C.3     
  22 C22            9.6321     5.4211    -1.4798 C.3     
  23 C23           -3.0641    -1.8037    -1.4198 C.3     
  24 C24           -3.5172    -2.0558    -2.8593 C.3     
  25 H25           -0.9599     1.9055     0.0169 H       
  26 H26            1.2139    -1.7656    -0.0186 H       
  27 H27            3.3358    -0.5219    -0.0322 H       
  28 H28            1.1507     3.1683     0.0077 H       
  29 H29           -1.1487    -1.7256     0.5181 H       
  30 H30           -2.0555    -0.1941     0.5353 H       
  31 H31           -1.8936    -0.0704    -1.9360 H       
  32 H32           -0.9867    -1.6020    -1.9532 H       
  33 H33            4.3010     1.4638     1.9210 H       
  34 H34            6.3800     2.7055     1.8889 H       
  35 H35            7.2074     5.2131    -0.5596 H       
  36 H36            7.5685     4.5356     1.0463 H       
  37 H37            8.5136     2.5073    -0.0221 H       
  38 H38            8.1525     3.1848    -1.6279 H       
  39 H39            9.9505     4.5138     0.4480 H       
  40 H40           10.6463     2.9653    -2.0887 H       
  41 H41           11.8043     3.8312    -1.0507 H       
  42 H42           10.9350     2.4109    -0.4221 H       
  43 H43            8.8302     6.0688    -1.1254 H       
  44 H44           10.5752     5.9673    -1.4614 H       
  45 H45            9.4172     5.1014    -2.4994 H       
  46 H46           -2.9182    -2.7574    -0.9125 H       
  47 H47           -3.8251    -1.2258    -0.8953 H       
  48 H48           -3.6632    -1.1022    -3.3666 H       
  49 H49           -2.7563    -2.6337    -3.3838 H       
  50 H50           -4.4551    -2.6113    -2.8530 H       
@<TRIPOS>BOND
   1    1    2 ar
   2    1    6 ar
   3    1   25 1
   4    2    3 ar
   5    2    7 1
   6    3    4 ar
   7    3   26 1
   8    4    5 ar
   9    4   27 1
  10    5    6 ar
  11    5    9 1
  12    6   28 1
  13    7    8 1
  14    7   29 1
  15    7   30 1
  16    8   23 1
  17    8   31 1
  18    8   32 1
  19    9   10 1
  20    9   14 2
  21   10   11 2
  22   10   33 1
  23   11   12 1
  24   11   34 1
  25   12   13 am
  26   12   18 1
  27   13   14 1
  28   13   15 2
  29   14   16 1
  30   16   17 3
  31   18   19 1
  32   18   35 1
  33   18   36 1
  34   19   20 1
  35   19   37 1
  36   19   38 1
  37   20   21 1
  38   20   22 1
  39   20   39 1
  40   21   40 1
  41   21   41 1
  42   21   42 1
  43   22   43 1
  44   22   44 1
  45   22   45 1
  46   23   24 1
  47   23   46 1
  48   23   47 1
  49   24   48 1
  50   24   49 1
  51   24   50 1

#	End of record

