#	Name: ASD03320060
#	Creating user name:	WinNT
#	Creation time:	15. 06. 2019 20:36

#	Modifying user name:	WinNT
#	Modification time:	15. 06. 2019 20:36

#	Program:	/corina/corina34_cracker 3.40 0067  02.08.2006

@<TRIPOS>MOLECULE
ASD03320060
  82   88    0    0    0
SMALL
NO_CHARGES


@<TRIPOS>ATOM
   1 N1            -0.1215     1.4398    -0.2643 N.3     
   2 C2             0.2227     0.0348    -0.5497 C.3     
   3 C3             1.7625    -0.0598    -0.5885 C.3     
   4 C4             2.2095     1.1751     0.2373 C.3     
   5 C5             1.1307     2.2173    -0.1496 C.3     
   6 C6            -0.9391     1.9599    -1.2506 C.ar    
   7 C7            -2.2835     1.5547    -1.3247 C.ar    
   8 C8            -3.0942     2.0870    -2.3232 C.ar    
   9 C9            -2.5295     3.0087    -3.2149 C.ar    
  10 C10           -1.1850     3.3580    -3.0720 C.ar    
  11 N11           -0.4488     2.8384    -2.1120 N.ar    
  12 N12           -3.5972    -0.5083    -0.6515 N.pl3   
  13 N13           -3.8932    -1.1604     0.5523 N.2     
  14 C14           -3.3293    -0.5007     1.5321 C.2     
  15 C15           -2.6522     0.5960     0.9983 C.2     
  16 C16           -2.8277     0.5775    -0.3570 C.2     
  17 C17           -3.3451     3.6025    -4.2916 C.2     
  18 N18           -2.7933     4.4882    -5.1446 N.am    
  19 O19           -4.5151     3.2926    -4.4093 O.2     
  20 C20           -3.5901     5.1274    -6.1026 C.ar    
  21 C21           -4.9106     5.4420    -5.8099 C.ar    
  22 C22           -5.6954     6.0727    -6.7548 C.ar    
  23 C23           -5.1651     6.3921    -7.9963 C.ar    
  24 C24           -3.8462     6.0776    -8.2896 C.ar    
  25 C25           -3.0584     5.4521    -7.3436 C.ar    
  26 O26           -5.9386     7.0131    -8.9262 O.3     
  27 C27           -5.3278     7.3123   -10.1830 C.3     
  28 F28           -4.2324     8.1583    -9.9795 F       
  29 F29           -4.8953     6.1260   -10.7854 F       
  30 Cl30          -6.5264     8.1282   -11.2547 Cl      
  31 C31           -4.0314    -0.9225    -1.9880 C.3     
  32 O32           -3.7976    -2.3226    -2.1524 O.3     
  33 C33           -4.1640    -2.8284    -3.4377 C.3     
  34 C34           -5.6638    -2.6159    -3.6596 C.3     
  35 C35           -5.9851    -1.1240    -3.5281 C.3     
  36 C36           -5.5259    -0.6334    -2.1516 C.3     
  37 O37            3.5103     1.6131    -0.1602 O.3     
  38 P38            4.7543     1.7031     0.8579 P.3     
  39 O39            6.1035     2.1080     0.0580 O.3     
  40 C40            7.3219     2.3839     0.7534 C.3     
  41 C41            7.3433     3.8107     1.2187 C.ar    
  42 C42            6.4838     4.2323     2.2324 C.ar    
  43 C43            5.5293     3.2627     2.8664 C.3     
  44 O44            4.5114     2.8887     1.9345 O.3     
  45 O45            4.9404     0.4091     1.5517 O.2     
  46 C46            8.2156     4.7144     0.6435 C.ar    
  47 C47            8.2411     6.0294     1.0659 C.ar    
  48 C48            7.3894     6.4471     2.0712 C.ar    
  49 C49            6.5148     5.5485     2.6508 C.ar    
  50 H50           -0.1688    -0.6100     0.2370 H       
  51 H51           -0.1913    -0.2598    -1.5140 H       
  52 H52            2.1038    -0.9820    -0.1182 H       
  53 H53            2.1272     0.0093    -1.6133 H       
  54 H54            2.1806     0.9616     1.3058 H       
  55 H55            1.3774     2.6824    -1.1040 H       
  56 H56            1.0375     2.9741     0.6294 H       
  57 H57           -4.1311     1.7970    -2.4086 H       
  58 H58           -0.7439     4.0675    -3.7563 H       
  59 H59           -3.3803    -0.7614     2.5789 H       
  60 H60           -2.0898     1.3296     1.5568 H       
  61 H61           -1.8444     4.6828    -5.0949 H       
  62 H62           -5.3237     5.1932    -4.8435 H       
  63 H63           -6.7226     6.3172    -6.5274 H       
  64 H64           -3.4341     6.3262    -9.2564 H       
  65 H65           -2.0302     5.2117    -7.5704 H       
  66 H66           -3.4695    -0.3693    -2.7405 H       
  67 H67           -3.6039    -2.3001    -4.2093 H       
  68 H68           -3.9364    -3.8932    -3.4877 H       
  69 H69           -5.9369    -2.9608    -4.6569 H       
  70 H70           -6.2256    -3.1767    -2.9126 H       
  71 H71           -5.4620    -0.5684    -4.3064 H       
  72 H72           -7.0597    -0.9722    -3.6295 H       
  73 H73           -6.0849    -1.1542    -1.3742 H       
  74 H74           -5.7004     0.4394    -2.0704 H       
  75 H75            7.4033     1.7218     1.6154 H       
  76 H76            8.1658     2.2091     0.0860 H       
  77 H77            6.0746     2.3730     3.1814 H       
  78 H78            5.0680     3.7277     3.7376 H       
  79 H79            8.8822     4.3907    -0.1422 H       
  80 H80            8.9258     6.7302     0.6115 H       
  81 H81            7.4080     7.4745     2.4035 H       
  82 H82            5.8504     5.8773     3.4361 H       
@<TRIPOS>BOND
   1    1    2 1
   2    1    5 1
   3    1    6 1
   4    2    3 1
   5    2   50 1
   6    2   51 1
   7    3    4 1
   8    3   52 1
   9    3   53 1
  10    4    5 1
  11    4   37 1
  12    4   54 1
  13    5   55 1
  14    5   56 1
  15    6    7 ar
  16    6   11 ar
  17    7    8 ar
  18    7   16 1
  19    8    9 ar
  20    8   57 1
  21    9   10 ar
  22    9   17 1
  23   10   11 ar
  24   10   58 1
  25   12   13 1
  26   12   16 1
  27   12   31 1
  28   13   14 2
  29   14   15 1
  30   14   59 1
  31   15   16 2
  32   15   60 1
  33   17   18 am
  34   17   19 2
  35   18   20 1
  36   18   61 1
  37   20   21 ar
  38   20   25 ar
  39   21   22 ar
  40   21   62 1
  41   22   23 ar
  42   22   63 1
  43   23   24 ar
  44   23   26 1
  45   24   25 ar
  46   24   64 1
  47   25   65 1
  48   26   27 1
  49   27   28 1
  50   27   29 1
  51   27   30 1
  52   31   32 1
  53   31   36 1
  54   31   66 1
  55   32   33 1
  56   33   34 1
  57   33   67 1
  58   33   68 1
  59   34   35 1
  60   34   69 1
  61   34   70 1
  62   35   36 1
  63   35   71 1
  64   35   72 1
  65   36   73 1
  66   36   74 1
  67   37   38 1
  68   38   39 1
  69   38   45 2
  70   38   44 1
  71   39   40 1
  72   40   41 1
  73   40   75 1
  74   40   76 1
  75   41   42 ar
  76   41   46 ar
  77   42   43 1
  78   42   49 ar
  79   43   44 1
  80   43   77 1
  81   43   78 1
  82   46   47 ar
  83   46   79 1
  84   47   48 ar
  85   47   80 1
  86   48   49 ar
  87   48   81 1
  88   49   82 1

#	End of record

