#	Name: ASD01820053
#	Creating user name:	WinNT
#	Creation time:	15. 06. 2019 19:36

#	Modifying user name:	WinNT
#	Modification time:	15. 06. 2019 19:36

#	Program:	/corina/corina34_cracker 3.40 0067  02.08.2006

@<TRIPOS>MOLECULE
ASD01820053
  78   81    0    0    0
SMALL
NO_CHARGES


@<TRIPOS>ATOM
   1 C1            -0.0167     1.3779     0.0096 C.ar    
   2 C2             0.0021    -0.0041     0.0020 C.ar    
   3 C3             1.2065    -0.6905    -0.0132 C.ar    
   4 C4             2.3989     0.0148    -0.0209 C.ar    
   5 C5             2.3798     1.4244    -0.0131 C.ar    
   6 C6             1.1686     2.0969     0.0022 C.ar    
   7 C7             3.8260    -0.3702    -0.0371 C.2     
   8 N8             4.5720     0.7493    -0.0385 N.am    
   9 C9             3.7959     1.8480    -0.0249 C.2     
  10 O10            4.1924     2.9959    -0.0234 O.2     
  11 O11            4.2534    -1.5069    -0.0471 O.2     
  12 C12            6.0368     0.7692    -0.0519 C.3     
  13 C13            6.5334     0.7832    -1.4990 C.3     
  14 C14            8.0631     0.8041    -1.5131 C.3     
  15 N15            8.5399     0.8175    -2.9025 N.4     
  16 C16           10.0087     0.8375    -2.9160 C.3     
  17 C17           10.5053     0.8516    -4.3631 C.3     
  18 C18           12.0351     0.8724    -4.3771 C.3     
  19 N19           14.0005     0.9064    -5.8377 N.4     
  20 C20           14.4773     0.9199    -7.2271 C.3     
  21 C21           16.0071     0.9407    -7.2411 C.3     
  22 C22           16.5037     0.9547    -8.6882 C.3     
  23 N23           17.9685     0.9746    -8.7017 N.am    
  24 C24            8.0602    -0.3850    -3.5965 C.3     
  25 C25            8.0277     2.0136    -3.5844 C.3     
  26 C26           18.7446    -0.1241    -8.7143 C.2     
  27 C27           20.1607     0.2996    -8.7258 C.ar    
  28 C28           20.1415     1.7091    -8.7190 C.ar    
  29 C29           18.7144     2.0941    -8.7089 C.2     
  30 C30           21.3718    -0.3730    -8.7410 C.ar    
  31 C31           22.5571     0.3460    -8.7493 C.ar    
  32 C32           22.5384     1.7279    -8.7422 C.ar    
  33 C33           21.3340     2.4144    -8.7278 C.ar    
  34 O34           18.2870     3.2308    -8.7010 O.2     
  35 O35           18.3481    -1.2720    -8.7159 O.2     
  36 C36           14.5128    -0.2897    -5.1558 C.3     
  37 C37           14.4803     2.1089    -5.1437 C.3     
  38 C38           12.5317     0.8864    -5.8242 C.3     
  39 H39           -0.9613     1.9013     0.0169 H       
  40 H40           -0.9280    -0.5530     0.0083 H       
  41 H41            1.2151    -1.7704    -0.0187 H       
  42 H42            1.1479     3.1766     0.0078 H       
  43 H43            6.3927     1.6615     0.4630 H       
  44 H44            6.4169    -0.1183     0.4541 H       
  45 H45            6.1774    -0.1091    -2.0140 H       
  46 H46            6.1533     1.6707    -2.0050 H       
  47 H47            8.4191     1.6964    -0.9981 H       
  48 H48            8.4432    -0.0834    -1.0071 H       
  49 H49           10.3647     1.7298    -2.4010 H       
  50 H50           10.3888    -0.0500    -2.4100 H       
  51 H51           10.1494    -0.0408    -4.8780 H       
  52 H52           10.1252     1.7390    -4.8690 H       
  53 H53           12.3911     1.7647    -3.8621 H       
  54 H54           12.4152    -0.0151    -3.8711 H       
  55 H55           14.1213     0.0275    -7.7420 H       
  56 H56           14.0972     1.8073    -7.7331 H       
  57 H57           16.3631     1.8330    -6.7262 H       
  58 H58           16.3872     0.0532    -6.7352 H       
  59 H59           16.1477     0.0624    -9.2032 H       
  60 H60           16.1236     1.8422    -9.1942 H       
  61 H61            6.9703    -0.3999    -3.5865 H       
  62 H62            8.4140    -0.3750    -4.6274 H       
  63 H63            8.4403    -1.2725    -3.0905 H       
  64 H64            8.3836     2.9059    -3.0694 H       
  65 H65            8.3815     2.0236    -4.6153 H       
  66 H66            6.9378     1.9988    -3.5744 H       
  67 H67           21.3925    -1.4528    -8.7459 H       
  68 H68           23.5017    -0.1774    -8.7611 H       
  69 H69           23.4685     2.2769    -8.7485 H       
  70 H70           21.3254     3.4943    -8.7225 H       
  71 H71           15.6026    -0.2748    -5.1658 H       
  72 H72           14.1590    -0.2997    -4.1248 H       
  73 H73           14.1568    -1.1820    -5.6707 H       
  74 H74           14.1002     2.9964    -5.6496 H       
  75 H75           14.1265     2.0989    -4.1127 H       
  76 H76           15.5701     2.1238    -5.1537 H       
  77 H77           12.1758    -0.0059    -6.3392 H       
  78 H78           12.1516     1.7739    -6.3302 H       
@<TRIPOS>BOND
   1    1    2 ar
   2    1    6 ar
   3    1   39 1
   4    2    3 ar
   5    2   40 1
   6    3    4 ar
   7    3   41 1
   8    4    5 ar
   9    4    7 1
  10    5    6 ar
  11    5    9 1
  12    6   42 1
  13    7    8 am
  14    7   11 2
  15    8    9 am
  16    8   12 1
  17    9   10 2
  18   12   13 1
  19   12   43 1
  20   12   44 1
  21   13   14 1
  22   13   45 1
  23   13   46 1
  24   14   15 1
  25   14   47 1
  26   14   48 1
  27   15   16 1
  28   15   24 1
  29   15   25 1
  30   16   17 1
  31   16   49 1
  32   16   50 1
  33   17   18 1
  34   17   51 1
  35   17   52 1
  36   18   38 1
  37   18   53 1
  38   18   54 1
  39   19   20 1
  40   19   36 1
  41   19   37 1
  42   19   38 1
  43   20   21 1
  44   20   55 1
  45   20   56 1
  46   21   22 1
  47   21   57 1
  48   21   58 1
  49   22   23 1
  50   22   59 1
  51   22   60 1
  52   23   26 am
  53   23   29 am
  54   24   61 1
  55   24   62 1
  56   24   63 1
  57   25   64 1
  58   25   65 1
  59   25   66 1
  60   26   27 1
  61   26   35 2
  62   27   28 ar
  63   27   30 ar
  64   28   29 1
  65   28   33 ar
  66   29   34 2
  67   30   31 ar
  68   30   67 1
  69   31   32 ar
  70   31   68 1
  71   32   33 ar
  72   32   69 1
  73   33   70 1
  74   36   71 1
  75   36   72 1
  76   36   73 1
  77   37   74 1
  78   37   75 1
  79   37   76 1
  80   38   77 1
  81   38   78 1

#	End of record

