#	Name: ASD01148471
#	Creating user name:	WinNT
#	Creation time:	15. 06. 2019 19:02

#	Modifying user name:	WinNT
#	Modification time:	15. 06. 2019 19:02

#	Program:	/corina/corina34_cracker 3.40 0067  02.08.2006

@<TRIPOS>MOLECULE
ASD01148471
  58   61    0    0    0
SMALL
NO_CHARGES


@<TRIPOS>ATOM
   1 C1             0.3639     1.8405     0.0686 C.ar    
   2 C2             0.4622     0.4637    -0.0065 C.ar    
   3 C3            -0.6818    -0.3072    -0.0940 C.ar    
   4 C4            -1.9243     0.2987    -0.1059 C.ar    
   5 C5            -2.0227     1.6754    -0.0299 C.ar    
   6 C6            -0.8788     2.4460     0.0620 C.ar    
   7 C7            -3.3772     2.3359    -0.0433 C.3     
   8 O8            -4.3695     1.4912     0.5741 O.3     
   9 C9            -3.3981     3.5754     0.8828 C.3     
  10 C10           -3.9251     3.0045     2.1856 C.2     
  11 N11           -4.4451     1.8488     1.9400 N.2     
  12 C12           -3.8550     3.6581     3.5073 C.ar    
  13 C13           -4.3821     3.0181     4.6321 C.ar    
  14 C14           -3.2565     4.9139     3.6347 C.ar    
  15 C15           -3.1912     5.5233     4.8675 C.ar    
  16 C16           -3.7228     4.8859     5.9908 C.ar    
  17 C17           -4.3167     3.6276     5.8644 C.ar    
  18 C18           -3.6518     5.5399     7.3143 C.2     
  19 O19           -4.2107     5.0389     8.2705 O.2     
  20 N20           -2.9673     6.6916     7.4610 N.am    
  21 C21           -4.8907     2.9402     7.0764 C.3     
  22 C22           -3.7868     2.7097    -1.4693 C.3     
  23 F23           -3.8258     1.5568    -2.2607 F       
  24 F24           -5.0527     3.3051    -1.4499 F       
  25 F25           -2.8566     3.6092    -2.0011 F       
  26 C26           -2.8969     7.3398     8.7729 C.3     
  27 C27           -2.0790     8.6010     8.6668 C.ar    
  28 N28           -0.7657     8.5364     8.7656 N.ar    
  29 C29           -0.0098     9.6136     8.6789 C.ar    
  30 C30           -0.5743    10.8591     8.4800 C.ar    
  31 C31           -1.9525    10.9667     8.3711 C.ar    
  32 C32           -2.7137     9.8116     8.4613 C.ar    
  33 C33           -0.5746    -1.8081    -0.1768 C.3     
  34 F34            0.7733    -2.1816    -0.1480 F       
  35 F35           -1.2414    -2.3840     0.9099 F       
  36 F36           -1.1561    -2.2521    -1.3693 F       
  37 C37            1.6111     2.6809     0.1639 C.3     
  38 F38            2.7357     1.8488     0.1589 F       
  39 F39            1.6709     3.5523    -0.9289 F       
  40 F40            1.5847     3.4219     1.3503 F       
  41 H41            1.4329    -0.0096     0.0028 H       
  42 H42           -2.8181    -0.3036    -0.1749 H       
  43 H43           -0.9556     3.5217     0.1214 H       
  44 H44           -2.3934     3.9769     1.0146 H       
  45 H45           -4.0728     4.3379     0.4935 H       
  46 H46           -4.8412     2.0454     4.5345 H       
  47 H47           -2.8447     5.4065     2.7663 H       
  48 H48           -2.7285     6.4942     4.9661 H       
  49 H49           -2.5213     7.0913     6.6980 H       
  50 H50           -5.8980     3.3128     7.2624 H       
  51 H51           -4.9276     1.8651     6.9009 H       
  52 H52           -4.2617     3.1456     7.9426 H       
  53 H53           -3.9034     7.5868     9.1106 H       
  54 H54           -2.4296     6.6628     9.4880 H       
  55 H55            1.0628     9.5213     8.7647 H       
  56 H56            0.0500    11.7376     8.4105 H       
  57 H57           -2.4215    11.9271     8.2157 H       
  58 H58           -3.7897     9.8581     8.3806 H       
@<TRIPOS>BOND
   1    1    2 ar
   2    1   37 1
   3    1    6 ar
   4    2    3 ar
   5    2   41 1
   6    3    4 ar
   7    3   33 1
   8    4    5 ar
   9    4   42 1
  10    5    6 ar
  11    5    7 1
  12    6   43 1
  13    7    8 1
  14    7    9 1
  15    7   22 1
  16    8   11 1
  17    9   10 1
  18    9   44 1
  19    9   45 1
  20   10   11 2
  21   10   12 1
  22   12   13 ar
  23   12   14 ar
  24   13   17 ar
  25   13   46 1
  26   14   15 ar
  27   14   47 1
  28   15   16 ar
  29   15   48 1
  30   16   17 ar
  31   16   18 1
  32   17   21 1
  33   18   19 2
  34   18   20 am
  35   20   26 1
  36   20   49 1
  37   21   50 1
  38   21   51 1
  39   21   52 1
  40   22   23 1
  41   22   24 1
  42   22   25 1
  43   26   27 1
  44   26   53 1
  45   26   54 1
  46   27   28 ar
  47   27   32 ar
  48   28   29 ar
  49   29   30 ar
  50   29   55 1
  51   30   31 ar
  52   30   56 1
  53   31   32 ar
  54   31   57 1
  55   32   58 1
  56   33   34 1
  57   33   35 1
  58   33   36 1
  59   37   38 1
  60   37   39 1
  61   37   40 1

#	End of record

