#	Name: ASD00170270
#	Creating user name:	WinNT
#	Creation time:	15. 06. 2019 18:31

#	Modifying user name:	WinNT
#	Modification time:	15. 06. 2019 18:31

#	Program:	/corina/corina34_cracker 3.40 0067  02.08.2006

@<TRIPOS>MOLECULE
ASD00170270
  26   27    0    0    0
SMALL
NO_CHARGES


@<TRIPOS>ATOM
   1 C1             0.1561     1.4561    -0.1856 C.2     
   2 C2             0.0717     0.0951    -0.0181 C.2     
   3 C3            -1.2883    -0.3617     0.1713 C.2     
   4 C4            -2.1767     0.6204     0.1455 C.2     
   5 S5            -1.3904     2.1683    -0.1076 S.3     
   6 C6             1.2337    -0.7979    -0.0301 C.2     
   7 C7             1.9283    -1.1156     1.2236 C.2     
   8 O8             1.5964    -0.6630     2.4501 O.3     
   9 C9             2.4517    -1.1597     3.3540 C.2     
  10 C10            3.3503    -1.9427     2.7176 C.2     
  11 C11            3.0199    -1.9256     1.3531 C.2     
  12 O12            1.6235    -1.2769    -1.0812 O.2     
  13 N13            1.3329     2.1520    -0.3839 N.pl3   
  14 C14           -1.6566    -1.8085     0.3763 C.3     
  15 C15           -3.6624     0.4338     0.3152 C.3     
  16 H16            2.4270    -0.9660     4.4162 H       
  17 H17            4.1668    -2.4831     3.1733 H       
  18 H18            3.5339    -2.4464     0.5588 H       
  19 H19            2.1841     1.6894    -0.3352 H       
  20 H20            1.3079     3.1033    -0.5718 H       
  21 H21           -1.6436    -2.0393     1.4415 H       
  22 H22           -2.6548    -1.9894    -0.0224 H       
  23 H23           -0.9379    -2.4434    -0.1418 H       
  24 H24           -3.9194     0.5071     1.3719 H       
  25 H25           -4.1916     1.2069    -0.2419 H       
  26 H26           -3.9508    -0.5475    -0.0617 H       
@<TRIPOS>BOND
   1    1    2 2
   2    1   13 1
   3    1    5 1
   4    2    3 1
   5    2    6 1
   6    3    4 2
   7    3   14 1
   8    4    5 1
   9    4   15 1
  10    6    7 1
  11    6   12 2
  12    7    8 1
  13    7   11 2
  14    8    9 1
  15    9   10 2
  16    9   16 1
  17   10   11 1
  18   10   17 1
  19   11   18 1
  20   13   19 1
  21   13   20 1
  22   14   21 1
  23   14   22 1
  24   14   23 1
  25   15   24 1
  26   15   25 1
  27   15   26 1

#	End of record

