#	Name: ASD01810813
#	Creating user name:	WinNT
#	Creation time:	15. 06. 2019 19:25

#	Modifying user name:	WinNT
#	Modification time:	15. 06. 2019 19:25

#	Program:	/corina/corina34_cracker 3.40 0067  02.08.2006

@<TRIPOS>MOLECULE
ASD01810813
  35   36    0    0    0
SMALL
NO_CHARGES


@<TRIPOS>ATOM
   1 C1            -0.1694     1.4644     0.1077 C.2     
   2 C2            -0.0713    -0.0086     0.0499 C.ar    
   3 C3             1.1557    -0.6186    -0.2254 C.ar    
   4 C4             1.2493    -1.9948    -0.2793 C.ar    
   5 C5             0.1331    -2.7784    -0.0624 C.ar    
   6 C6            -1.1001    -2.1820     0.2139 C.ar    
   7 C7            -1.2006    -0.7930     0.2755 C.ar    
   8 O8             0.8321     2.1443     0.0062 O.2     
   9 O9            -1.3701     2.0538     0.2673 O.3     
  10 C10            2.3792     0.2281    -0.4645 C.3     
  11 C11            0.2450    -4.2799    -0.1243 C.3     
  12 C12            0.7348    -4.8056    -1.4840 C.3     
  13 C13            1.5758    -5.8255    -0.6981 C.3     
  14 C14            1.5545    -4.8251     0.4697 C.3     
  15 C15           -2.2925    -3.0212     0.4455 C.2     
  16 N16           -2.6428    -3.3625     1.7014 N.am    
  17 S17           -3.2304    -3.5607    -0.8813 S.2     
  18 C18           -1.3911     3.5048     0.3154 C.3     
  19 H19            2.2000    -2.4609    -0.4925 H       
  20 H20           -2.1502    -0.3269     0.4930 H       
  21 H21            2.8140     0.5167     0.4925 H       
  22 H22            3.1096    -0.3426    -1.0380 H       
  23 H23            2.0991     1.1226    -1.0208 H       
  24 H24           -0.6472    -4.7864     0.2439 H       
  25 H25           -0.0523    -5.2600    -2.0857 H       
  26 H26            1.3322    -4.0843    -2.0415 H       
  27 H27            1.0483    -6.7554    -0.4860 H       
  28 H28            2.5692    -5.9871    -1.1165 H       
  29 H29            2.3760    -4.1090     0.4462 H       
  30 H30            1.4292    -5.2951     1.4451 H       
  31 H31           -2.1114    -3.0568     2.4531 H       
  32 H32           -3.4262    -3.9139     1.8536 H       
  33 H33           -2.4169     3.8492     0.4468 H       
  34 H34           -0.7822     3.8495     1.1511 H       
  35 H35           -0.9900     3.9050    -0.6158 H       
@<TRIPOS>BOND
   1    1    2 1
   2    1    8 2
   3    1    9 1
   4    2    3 ar
   5    2    7 ar
   6    3    4 ar
   7    3   10 1
   8    4    5 ar
   9    4   19 1
  10    5    6 ar
  11    5   11 1
  12    6    7 ar
  13    6   15 1
  14    7   20 1
  15    9   18 1
  16   10   21 1
  17   10   22 1
  18   10   23 1
  19   11   12 1
  20   11   14 1
  21   11   24 1
  22   12   13 1
  23   12   25 1
  24   12   26 1
  25   13   14 1
  26   13   27 1
  27   13   28 1
  28   14   29 1
  29   14   30 1
  30   15   16 am
  31   15   17 2
  32   16   31 1
  33   16   32 1
  34   18   33 1
  35   18   34 1
  36   18   35 1

#	End of record

