#	Name: ASD04882374
#	Creating user name:	WinNT
#	Creation time:	15. 06. 2019 20:54

#	Modifying user name:	WinNT
#	Modification time:	15. 06. 2019 20:54

#	Program:	/corina/corina34_cracker 3.40 0067  02.08.2006

@<TRIPOS>MOLECULE
ASD04882374
  80   84    0    0    0
SMALL
NO_CHARGES


@<TRIPOS>ATOM
   1 N1            -0.0169     1.3970     0.0097 N.am    
   2 C2             0.1097     0.0022    -0.0340 C.ar    
   3 C3            -1.0275    -0.8062     0.0459 C.ar    
   4 C4            -0.9033    -2.1902     0.0031 C.ar    
   5 C5             0.3402    -2.7696    -0.1180 C.ar    
   6 C6             1.4816    -1.9670    -0.1983 C.ar    
   7 C7             1.3589    -0.5752    -0.1618 C.ar    
   8 N8            -2.2868    -0.2246     0.1689 N.3     
   9 C9            -3.1526    -0.6000    -0.9577 C.3     
  10 C10           -2.9098    -0.5835     1.4505 C.3     
  11 C11           -4.2536     0.1373     1.5811 C.3     
  12 N12           -5.1194    -0.2381     0.4545 N.3     
  13 C13           -4.4964     0.1209    -0.8271 C.3     
  14 C14            2.8136    -2.5880    -0.3271 C.2     
  15 O15            3.8061    -1.8889    -0.3969 O.2     
  16 C16            0.9210     2.1771    -0.5631 C.2     
  17 C17            0.7439     3.6401    -0.5948 C.2     
  18 O18            1.9136     1.6739    -1.0540 O.2     
  19 C19           -6.3824     0.3453     0.5779 C.ar    
  20 C20           -6.5094     1.7277     0.6213 C.ar    
  21 C21           -7.5151    -0.4558     0.6517 C.ar    
  22 C22           -8.7623     0.1242     0.7737 C.ar    
  23 C23           -8.8847     1.5010     0.8219 C.ar    
  24 C24           -7.7599     2.3014     0.7434 C.ar    
  25 C25            1.6025     4.5470    -1.1359 C.2     
  26 N26           -0.3115     4.3376    -0.0938 N.2     
  27 C27           -0.1090     5.6027    -0.3102 C.2     
  28 O28            1.0591     5.7604    -0.9487 O.3     
  29 N29            2.9304    -3.9301    -0.3674 N.am    
  30 C30           -1.0419     6.7166     0.0899 C.3     
  31 C31           -7.3828    -1.9560     0.5983 C.3     
  32 C32            4.2532    -4.5467    -0.4952 C.3     
  33 C33            4.1061    -6.0695    -0.5168 C.3     
  34 C34            5.4875    -6.7135    -0.6504 C.3     
  35 N35            5.3466    -8.1715    -0.6710 N.am    
  36 C36            5.1616    -8.9961    -1.8750 C.3     
  37 C37            5.0737   -10.4330    -1.3257 C.3     
  38 O38            5.2169   -10.2693     0.1150 O.3     
  39 C39            5.3711    -8.9721     0.4033 C.2     
  40 O40            5.5121    -8.5569     1.5365 O.2     
  41 C41            3.8656    -8.6151    -2.5934 C.3     
  42 C42            6.3607    -8.8522    -2.8144 C.3     
  43 H43           -0.7817     1.8010     0.4488 H       
  44 H44           -1.7839    -2.8123     0.0654 H       
  45 H45            0.4334    -3.8451    -0.1505 H       
  46 H46            2.2391     0.0476    -0.2240 H       
  47 H47           -2.6753    -0.3127    -1.8946 H       
  48 H48           -3.3155    -1.6777    -0.9477 H       
  49 H49           -3.0700    -1.6610     1.4879 H       
  50 H50           -2.2555    -0.2842     2.2693 H       
  51 H51           -4.7308    -0.1499     2.5180 H       
  52 H52           -4.0906     1.2151     1.5711 H       
  53 H53           -4.3362     1.1984    -0.8645 H       
  54 H54           -5.1506    -0.1784    -1.6459 H       
  55 H55           -5.6312     2.3535     0.5600 H       
  56 H56           -9.6432    -0.4979     0.8312 H       
  57 H57           -9.8614     1.9521     0.9166 H       
  58 H58           -7.8590     3.3761     0.7813 H       
  59 H59            2.5419     4.3316    -1.6231 H       
  60 H60            2.1387    -4.4877    -0.3116 H       
  61 H61           -0.7858     7.0629     1.0912 H       
  62 H62           -0.9461     7.5419    -0.6156 H       
  63 H63           -2.0686     6.3506     0.0836 H       
  64 H64           -7.2639    -2.3465     1.6090 H       
  65 H65           -8.2778    -2.3838     0.1466 H       
  66 H66           -6.5112    -2.2228     0.0008 H       
  67 H67            4.7212    -4.2137    -1.4216 H       
  68 H68            4.8741    -4.2536     0.3513 H       
  69 H69            3.6380    -6.4024     0.4095 H       
  70 H70            3.4852    -6.3625    -1.3634 H       
  71 H71            5.9555    -6.3805    -1.5768 H       
  72 H72            6.1084    -6.4204     0.1962 H       
  73 H73            4.1069   -10.8754    -1.5658 H       
  74 H74            5.8839   -11.0443    -1.7231 H       
  75 H75            3.9075    -7.5661    -2.8864 H       
  76 H76            3.7464    -9.2359    -3.4814 H       
  77 H77            3.0196    -8.7719    -1.9242 H       
  78 H78            7.2658    -9.1755    -2.3003 H       
  79 H79            6.2052    -9.4696    -3.6991 H       
  80 H80            6.4653    -7.8092    -3.1130 H       
@<TRIPOS>BOND
   1    1    2 1
   2    1   16 am
   3    1   43 1
   4    2    3 ar
   5    2    7 ar
   6    3    4 ar
   7    3    8 1
   8    4    5 ar
   9    4   44 1
  10    5    6 ar
  11    5   45 1
  12    6    7 ar
  13    6   14 1
  14    7   46 1
  15    8    9 1
  16    8   10 1
  17    9   13 1
  18    9   47 1
  19    9   48 1
  20   10   11 1
  21   10   49 1
  22   10   50 1
  23   11   12 1
  24   11   51 1
  25   11   52 1
  26   12   13 1
  27   12   19 1
  28   13   53 1
  29   13   54 1
  30   14   15 2
  31   14   29 am
  32   16   18 2
  33   16   17 1
  34   17   25 2
  35   17   26 1
  36   19   20 ar
  37   19   21 ar
  38   20   24 ar
  39   20   55 1
  40   21   22 ar
  41   21   31 1
  42   22   23 ar
  43   22   56 1
  44   23   24 ar
  45   23   57 1
  46   24   58 1
  47   25   28 1
  48   25   59 1
  49   26   27 2
  50   27   28 1
  51   27   30 1
  52   29   32 1
  53   29   60 1
  54   30   61 1
  55   30   62 1
  56   30   63 1
  57   31   64 1
  58   31   65 1
  59   31   66 1
  60   32   33 1
  61   32   67 1
  62   32   68 1
  63   33   34 1
  64   33   69 1
  65   33   70 1
  66   34   35 1
  67   34   71 1
  68   34   72 1
  69   35   36 1
  70   35   39 am
  71   36   37 1
  72   36   41 1
  73   36   42 1
  74   37   38 1
  75   37   73 1
  76   37   74 1
  77   38   39 1
  78   39   40 2
  79   41   75 1
  80   41   76 1
  81   41   77 1
  82   42   78 1
  83   42   79 1
  84   42   80 1

#	End of record

