#	Name: ASD01820100
#	Creating user name:	WinNT
#	Creation time:	15. 06. 2019 19:36

#	Modifying user name:	WinNT
#	Modification time:	15. 06. 2019 19:36

#	Program:	/corina/corina34_cracker 3.40 0067  02.08.2006

@<TRIPOS>MOLECULE
ASD01820100
 101  103    0    0    0
SMALL
NO_CHARGES


@<TRIPOS>ATOM
   1 C1             0.8968     2.2564     1.8772 C.ar    
   2 C2             1.8672     2.9077     1.0823 C.ar    
   3 C3             2.8892     2.1581     0.5187 C.ar    
   4 C4             2.9513     0.7868     0.7368 C.ar    
   5 C5             2.0227     0.1412     1.5017 C.ar    
   6 C6             0.9711     0.8642     2.0913 C.ar    
   7 C7            -0.0089     0.2458     2.8872 C.ar    
   8 C8            -1.0118     0.9907     3.4383 C.ar    
   9 C9            -1.0959     2.3631     3.2348 C.ar    
  10 C10           -0.1454     3.0122     2.4607 C.ar    
  11 N11            0.7481     5.0502     1.4484 N.am    
  12 C12            1.7565     4.3601     0.8824 C.2     
  13 C13           -0.1892     4.4612     2.2150 C.2     
  14 C14            0.6712     6.4963     1.2264 C.3     
  15 C15           -0.1661     6.7766    -0.0230 C.3     
  16 C16           -0.2465     8.2868    -0.2548 C.3     
  17 N17           -0.5362     8.5502    -1.6707 N.4     
  18 C18           -0.7924     9.9843    -1.8596 C.3     
  19 C19           -1.0942    10.2586    -3.3342 C.3     
  20 C20           -1.3609    11.7523    -3.5309 C.3     
  21 C21           -1.6628    12.0265    -5.0056 C.3     
  22 C22           -1.9295    13.5202    -5.2023 C.3     
  23 C23           -2.2313    13.7945    -6.6769 C.3     
  24 N24           -2.4875    15.2286    -6.8658 N.4     
  25 C25           -2.7772    15.4920    -8.2816 C.3     
  26 C26           -3.0440    16.9856    -8.4784 C.3     
  27 C27           -3.3458    17.2599    -9.9530 C.3     
  28 C28           -3.6126    18.7536   -10.1497 C.3     
  29 N29           -3.9016    19.0162   -11.5617 N.am    
  30 C30           -5.0182    19.3004   -13.5452 C.ar    
  31 C31           -2.9712    19.3149   -12.4863 C.2     
  32 C32           -5.1316    18.9848   -12.1056 C.2     
  33 O33            2.5774     4.9407     0.1983 O.2     
  34 O34           -1.0768     5.1313     2.7069 O.2     
  35 C35            0.6147     8.1463    -2.4894 C.3     
  36 C36           -1.7208     7.7833    -2.0789 C.3     
  37 C37           -5.4777    19.7315   -15.8579 C.ar    
  38 C38           -4.1315    19.9372   -16.0952 C.ar    
  39 C39           -3.2114    19.8262   -15.0645 C.ar    
  40 C40           -3.6456    19.5101   -13.7871 C.ar    
  41 C41           -5.9262    19.4115   -14.5860 C.ar    
  42 O42           -6.1625    18.7379   -11.5131 O.2     
  43 O43           -1.7771    19.4088   -12.2858 O.2     
  44 C44            0.4867     6.1087    -1.2349 C.3     
  45 C45           -1.5759     6.2148     0.1712 C.3     
  46 C46           -3.6384    15.6325    -6.0471 C.3     
  47 C47           -1.3029    15.9955    -6.4575 C.3     
  48 H48            3.6383     2.6411    -0.0911 H       
  49 H49            3.7533     0.2181     0.2899 H       
  50 H50            2.0959    -0.9256     1.6536 H       
  51 H51            0.0312    -0.8191     3.0625 H       
  52 H52           -1.7580     0.5017     4.0470 H       
  53 H53           -1.9008     2.9260     3.6838 H       
  54 H54            0.2062     6.9721     2.0898 H       
  55 H55            1.6756     6.8965     1.0881 H       
  56 H56           -1.0400     8.7075     0.3628 H       
  57 H57            0.7048     8.7466     0.0130 H       
  58 H58           -1.6463    10.2840    -1.2521 H       
  59 H59            0.0866    10.5533    -1.5566 H       
  60 H60           -0.2402     9.9589    -3.9417 H       
  61 H61           -1.9731     9.6895    -3.6371 H       
  62 H62           -2.2149    12.0519    -2.9234 H       
  63 H63           -0.4820    12.3213    -3.2280 H       
  64 H64           -0.8088    11.7269    -5.6130 H       
  65 H65           -2.5417    11.4575    -5.3085 H       
  66 H66           -2.7835    13.8199    -4.5948 H       
  67 H67           -1.0506    14.0893    -4.8993 H       
  68 H68           -1.3774    13.4948    -7.2844 H       
  69 H69           -3.1103    13.2255    -6.9798 H       
  70 H70           -1.9233    15.1923    -8.8891 H       
  71 H71           -3.6562    14.9229    -8.5846 H       
  72 H72           -3.8980    17.2853    -7.8709 H       
  73 H73           -2.1651    17.5547    -8.1754 H       
  74 H74           -2.4918    16.9603   -10.5605 H       
  75 H75           -4.2247    16.6909   -10.2559 H       
  76 H76           -4.4665    19.0533    -9.5422 H       
  77 H77           -2.7336    19.3226    -9.8468 H       
  78 H78            0.5014     7.1037    -2.7862 H       
  79 H79            0.6657     8.7739    -3.3791 H       
  80 H80            1.5309     8.2618    -1.9103 H       
  81 H81           -2.4353     7.7531    -1.2564 H       
  82 H82           -2.1821     8.2602    -2.9437 H       
  83 H83           -1.4238     6.7674    -2.3397 H       
  84 H84           -6.1850    19.8211   -16.6692 H       
  85 H85           -3.7943    20.1857   -17.0906 H       
  86 H86           -2.1605    19.9851   -15.2562 H       
  87 H87           -6.9788    19.2490   -14.4071 H       
  88 H88            0.7100     5.0680    -0.9997 H       
  89 H89           -0.1952     6.1509    -2.0842 H       
  90 H90            1.4102     6.6311    -1.4841 H       
  91 H91           -2.1155     6.8285     0.8925 H       
  92 H92           -2.1052     6.2241    -0.7817 H       
  93 H93           -1.5114     5.1914     0.5410 H       
  94 H94           -3.4233    15.4371    -4.9965 H       
  95 H95           -3.8284    16.6966    -6.1872 H       
  96 H96           -4.5173    15.0634    -6.3500 H       
  97 H97           -0.4489    15.6959    -7.0650 H       
  98 H98           -1.4930    17.0596    -6.5977 H       
  99 H99           -1.0879    15.8001    -5.4070 H       
 100 Br100          8.7533    25.1857     9.0470 Br      
 101 Br101         13.7533    30.1857    14.0470 Br      
@<TRIPOS>BOND
   1    1    6 ar
   2    1    2 ar
   3    1   10 ar
   4    2    3 ar
   5    2   12 1
   6    3    4 ar
   7    3   48 1
   8    4    5 ar
   9    4   49 1
  10    5    6 ar
  11    5   50 1
  12    6    7 ar
  13    7    8 ar
  14    7   51 1
  15    8    9 ar
  16    8   52 1
  17    9   10 ar
  18    9   53 1
  19   10   13 1
  20   11   12 am
  21   11   13 am
  22   11   14 1
  23   12   33 2
  24   13   34 2
  25   14   15 1
  26   14   54 1
  27   14   55 1
  28   15   16 1
  29   15   44 1
  30   15   45 1
  31   16   17 1
  32   16   56 1
  33   16   57 1
  34   17   18 1
  35   17   35 1
  36   17   36 1
  37   18   19 1
  38   18   58 1
  39   18   59 1
  40   19   20 1
  41   19   60 1
  42   19   61 1
  43   20   21 1
  44   20   62 1
  45   20   63 1
  46   21   22 1
  47   21   64 1
  48   21   65 1
  49   22   23 1
  50   22   66 1
  51   22   67 1
  52   23   24 1
  53   23   68 1
  54   23   69 1
  55   24   25 1
  56   24   46 1
  57   24   47 1
  58   25   26 1
  59   25   70 1
  60   25   71 1
  61   26   27 1
  62   26   72 1
  63   26   73 1
  64   27   28 1
  65   27   74 1
  66   27   75 1
  67   28   29 1
  68   28   76 1
  69   28   77 1
  70   29   32 am
  71   29   31 am
  72   30   32 1
  73   30   41 ar
  74   30   40 ar
  75   31   43 2
  76   31   40 1
  77   32   42 2
  78   35   78 1
  79   35   79 1
  80   35   80 1
  81   36   81 1
  82   36   82 1
  83   36   83 1
  84   37   38 ar
  85   37   41 ar
  86   37   84 1
  87   38   39 ar
  88   38   85 1
  89   39   40 ar
  90   39   86 1
  91   41   87 1
  92   44   88 1
  93   44   89 1
  94   44   90 1
  95   45   91 1
  96   45   92 1
  97   45   93 1
  98   46   94 1
  99   46   95 1
 100   46   96 1
 101   47   97 1
 102   47   98 1
 103   47   99 1

#	End of record

