#	Name: ASD01880439
#	Creating user name:	WinNT
#	Creation time:	15. 06. 2019 19:40

#	Modifying user name:	WinNT
#	Modification time:	15. 06. 2019 19:40

#	Program:	/corina/corina34_cracker 3.40 0067  02.08.2006

@<TRIPOS>MOLECULE
ASD01880439
  26   26    0    0    0
SMALL
NO_CHARGES


@<TRIPOS>ATOM
   1 O1            -0.0161     1.3381     0.0094 O.3     
   2 C2             0.0021    -0.0041     0.0020 C.2     
   3 O3             1.0565    -0.5939    -0.0112 O.2     
   4 C4            -1.2926    -0.7753     0.0102 C.3     
   5 C5            -1.8454    -0.8287     1.4359 C.3     
   6 C6            -3.2191    -1.5022     1.4254 C.3     
   7 C7            -3.7636    -1.5548     2.8296 C.2     
   8 C8            -4.5285    -0.6355     3.4616 C.2     
   9 C9            -5.0176     0.6725     2.8950 C.3     
  10 O10           -4.7665    -1.1154     4.6908 O.3     
  11 N11           -4.2424    -2.1919     4.8600 N.2     
  12 C12           -3.5978    -2.5833     3.7935 C.2     
  13 O13           -2.9012    -3.7380     3.6409 O.3     
  14 N14           -1.0519    -2.1414    -0.4731 N.3     
  15 H15            0.8394     1.7888     0.0037 H       
  16 H16           -2.0139    -0.2813    -0.6408 H       
  17 H17           -1.1655    -1.3999     2.0680 H       
  18 H18           -1.9404     0.1843     1.8269 H       
  19 H19           -3.8990    -0.9310     0.7932 H       
  20 H20           -3.1241    -2.5152     1.0343 H       
  21 H21           -5.9830     0.5209     2.4120 H       
  22 H22           -5.1243     1.3999     3.6998 H       
  23 H23           -4.2995     1.0427     2.1634 H       
  24 H24           -3.4294    -4.4742     3.3031 H       
  25 H25           -0.3861    -2.6207     0.1143 H       
  26 H26           -1.9154    -2.6594    -0.5382 H       
@<TRIPOS>BOND
   1    1    2 1
   2    1   15 1
   3    2    3 2
   4    2    4 1
   5    4    5 1
   6    4   14 1
   7    4   16 1
   8    5    6 1
   9    5   17 1
  10    5   18 1
  11    6    7 1
  12    6   19 1
  13    6   20 1
  14    7    8 2
  15    7   12 1
  16    8    9 1
  17    8   10 1
  18    9   21 1
  19    9   22 1
  20    9   23 1
  21   10   11 1
  22   11   12 2
  23   12   13 1
  24   13   24 1
  25   14   25 1
  26   14   26 1

#	End of record

