#	Name: ASD01001274
#	Creating user name:	WinNT
#	Creation time:	15. 06. 2019 18:55

#	Modifying user name:	WinNT
#	Modification time:	15. 06. 2019 18:55

#	Program:	/corina/corina34_cracker 3.40 0067  02.08.2006

@<TRIPOS>MOLECULE
ASD01001274
  41   43    0    0    0
SMALL
NO_CHARGES


@<TRIPOS>ATOM
   1 C1            -0.0167     1.3800     0.0096 C.ar    
   2 C2             0.0021    -0.0041     0.0020 C.ar    
   3 N3            -1.1265    -0.6922    -0.0013 N.ar    
   4 C4            -2.3182    -0.1027     0.0061 C.ar    
   5 C5            -2.4075     1.3031     0.0194 C.ar    
   6 C6            -1.2322     2.0481     0.0189 C.ar    
   7 C7             1.2387     2.2111     0.0021 C.3     
   8 C8             2.4428     1.3690     0.4192 C.3     
   9 C9             2.4574     0.0924    -0.4295 C.3     
  10 C10            1.2893    -0.7899     0.0050 C.3     
  11 C11            3.7312     2.1596     0.1831 C.3     
  12 C12            3.6998     3.4454     1.0118 C.3     
  13 C13            4.9339     1.3119     0.6024 C.3     
  14 C14            3.8484     2.5122    -1.3011 C.3     
  15 C15           -3.6472    -0.5950     0.0041 C.2     
  16 C16           -4.4857     0.4736     0.0175 C.2     
  17 N17           -3.7405     1.6340     0.0277 N.pl3   
  18 C18           -5.9565     0.4041     0.0201 C.2     
  19 N19           -6.6847     1.5381     0.0334 N.am    
  20 O20           -6.5142    -0.6767     0.0103 O.2     
  21 H21           -1.2658     3.1276     0.0290 H       
  22 H22            1.4044     2.6029    -1.0015 H       
  23 H23            1.1234     3.0427     0.6974 H       
  24 H24            2.3601     1.1075     1.4742 H       
  25 H25            2.3491     0.3514    -1.4827 H       
  26 H26            3.3960    -0.4398    -0.2746 H       
  27 H27            1.4781    -1.1670     1.0101 H       
  28 H28            1.1987    -1.6307    -0.6827 H       
  29 H29            3.6163     3.1942     2.0691 H       
  30 H30            4.6177     4.0087     0.8435 H       
  31 H31            2.8430     4.0493     0.7130 H       
  32 H32            4.9563     0.3959     0.0120 H       
  33 H33            5.8518     1.8752     0.4341 H       
  34 H34            4.8504     1.0607     1.6597 H       
  35 H35            2.9916     3.1162    -1.5999 H       
  36 H36            4.7663     3.0755    -1.4694 H       
  37 H37            3.8708     1.5962    -1.8915 H       
  38 H38           -3.9408    -1.6343    -0.0066 H       
  39 H39           -4.0988     2.5354     0.0392 H       
  40 H40           -6.2399     2.4000     0.0413 H       
  41 H41           -7.6536     1.4923     0.0352 H       
@<TRIPOS>BOND
   1    1    2 ar
   2    1    7 1
   3    1    6 ar
   4    2    3 ar
   5    2   10 1
   6    3    4 ar
   7    4    5 ar
   8    4   15 1
   9    5    6 ar
  10    5   17 1
  11    6   21 1
  12    7    8 1
  13    7   22 1
  14    7   23 1
  15    8    9 1
  16    8   11 1
  17    8   24 1
  18    9   10 1
  19    9   25 1
  20    9   26 1
  21   10   27 1
  22   10   28 1
  23   11   12 1
  24   11   13 1
  25   11   14 1
  26   12   29 1
  27   12   30 1
  28   12   31 1
  29   13   32 1
  30   13   33 1
  31   13   34 1
  32   14   35 1
  33   14   36 1
  34   14   37 1
  35   15   16 2
  36   15   38 1
  37   16   17 1
  38   16   18 1
  39   17   39 1
  40   18   19 am
  41   18   20 2
  42   19   40 1
  43   19   41 1

#	End of record

