#	Name: ASD05430445
#	Creating user name:	WinNT
#	Creation time:	15. 06. 2019 21:00

#	Modifying user name:	WinNT
#	Modification time:	15. 06. 2019 21:00

#	Program:	/corina/corina34_cracker 3.40 0067  02.08.2006

@<TRIPOS>MOLECULE
ASD05430445
  61   65    0    0    0
SMALL
NO_CHARGES


@<TRIPOS>ATOM
   1 C1            -1.2081    -0.7276     0.2312 C.ar    
   2 C2            -0.1950    -0.1753     1.0147 C.ar    
   3 C3            -0.3596     1.0811     1.5842 C.ar    
   4 C4            -1.5244     1.7873     1.3782 C.ar    
   5 C5            -2.5448     1.2397     0.5935 C.ar    
   6 C6            -2.3766    -0.0224     0.0151 C.ar    
   7 C7            -4.9615     1.3382     0.2606 C.2     
   8 C8            -3.7898     1.9925     0.3722 C.2     
   9 O9            -1.0436    -1.9573    -0.3246 O.3     
  10 C10            2.2676    -0.4175     1.0622 C.2     
  11 N11            0.9911    -0.8894     1.2283 N.pl3   
  12 C12            3.1008    -1.4281     1.3752 C.2     
  13 N13            2.3590    -2.4900     1.7234 N.2     
  14 C14            1.0938    -2.1800     1.6395 C.2     
  15 C15            4.6064    -1.3753     1.3398 C.3     
  16 C16           -7.4703     0.3377     1.0665 C.2     
  17 N17           -7.4244     1.4949     0.3861 N.am    
  18 N18           -6.3611    -0.4172     1.2121 N.am    
  19 C19           -6.2287     2.0095    -0.1277 C.2     
  20 C20           -5.1034    -0.1544     0.5147 C.3     
  21 C21           -8.4868     2.4517     0.0766 C.3     
  22 C22           -7.8366     3.3313    -1.0187 C.3     
  23 N23           -6.4014     3.0139    -0.9127 N.2     
  24 C24           -9.7046     1.7441    -0.4595 C.ar    
  25 C25          -10.8504     1.6624     0.3097 C.ar    
  26 C26          -11.9679     1.0141    -0.1810 C.ar    
  27 C27          -11.9397     0.4463    -1.4435 C.ar    
  28 C28          -10.7915     0.5288    -2.2130 C.ar    
  29 C29           -9.6769     1.1821    -1.7222 C.ar    
  30 F30          -13.0314    -0.1880    -1.9241 F       
  31 C31           -2.1219    -2.4614    -1.1153 C.3     
  32 O32           -8.5199    -0.0324     1.5556 O.2     
  33 C33           -8.8407     3.2876     1.3082 C.3     
  34 C34           -6.4199    -1.5606     2.1260 C.3     
  35 O35           -9.8792     4.2110     0.9749 O.3     
  36 H36            0.4274     1.5051     2.1903 H       
  37 H37           -1.6499     2.7635     1.8228 H       
  38 H38           -3.1618    -0.4487    -0.5917 H       
  39 H39           -3.7638     3.0697     0.2993 H       
  40 H40            2.5506     0.5730     0.7381 H       
  41 H41            0.2672    -2.8390     1.8604 H       
  42 H42            4.9815    -1.0496     2.3101 H       
  43 H43            4.9995    -2.3662     1.1124 H       
  44 H44            4.9274    -0.6720     0.5714 H       
  45 H45           -5.0981    -0.6864    -0.4366 H       
  46 H46           -4.2701    -0.4990     1.1271 H       
  47 H47           -8.2212     3.0643    -2.0030 H       
  48 H48           -8.0075     4.3880    -0.8131 H       
  49 H49          -10.8722     2.1051     1.2945 H       
  50 H50          -12.8629     0.9501     0.4202 H       
  51 H51          -10.7683     0.0862    -3.1979 H       
  52 H52           -8.7812     1.2466    -2.3222 H       
  53 H53           -1.8614    -3.4482    -1.4981 H       
  54 H54           -3.0193    -2.5353    -0.5010 H       
  55 H55           -2.3076    -1.7853    -1.9498 H       
  56 H56           -9.1820     2.6301     2.1078 H       
  57 H57           -7.9594     3.8364     1.6403 H       
  58 H58           -7.4140    -1.6208     2.5692 H       
  59 H59           -6.2118    -2.4776     1.5746 H       
  60 H60           -5.6778    -1.4343     2.9143 H       
  61 H61          -10.1547     4.7752     1.7103 H       
@<TRIPOS>BOND
   1    1    2 ar
   2    1    9 1
   3    1    6 ar
   4    2    3 ar
   5    2   11 1
   6    3    4 ar
   7    3   36 1
   8    4    5 ar
   9    4   37 1
  10    5    6 ar
  11    5    8 1
  12    6   38 1
  13    7    8 2
  14    7   19 1
  15    7   20 1
  16    8   39 1
  17    9   31 1
  18   10   11 1
  19   10   12 2
  20   10   40 1
  21   11   14 1
  22   12   13 1
  23   12   15 1
  24   13   14 2
  25   14   41 1
  26   15   42 1
  27   15   43 1
  28   15   44 1
  29   16   17 am
  30   16   18 am
  31   16   32 2
  32   17   21 1
  33   17   19 1
  34   18   34 1
  35   18   20 1
  36   19   23 2
  37   20   45 1
  38   20   46 1
  39   21   22 1
  40   21   24 1
  41   21   33 1
  42   22   23 1
  43   22   47 1
  44   22   48 1
  45   24   25 ar
  46   24   29 ar
  47   25   26 ar
  48   25   49 1
  49   26   27 ar
  50   26   50 1
  51   27   28 ar
  52   27   30 1
  53   28   29 ar
  54   28   51 1
  55   29   52 1
  56   31   53 1
  57   31   54 1
  58   31   55 1
  59   33   35 1
  60   33   56 1
  61   33   57 1
  62   34   58 1
  63   34   59 1
  64   34   60 1
  65   35   61 1

#	End of record

