#	Name: ASD03430002
#	Creating user name:	WinNT
#	Creation time:	15. 06. 2019 20:40

#	Modifying user name:	WinNT
#	Modification time:	15. 06. 2019 20:40

#	Program:	/corina/corina34_cracker 3.40 0067  02.08.2006

@<TRIPOS>MOLECULE
ASD03430002
  45   50    0    0    0
SMALL
NO_CHARGES


@<TRIPOS>ATOM
   1 N1            -0.0169     1.3943     0.0097 N.pl3   
   2 N2             0.0021    -0.0041     0.0020 N.2     
   3 C3             1.2310    -0.4349    -0.0158 C.2     
   4 C4             2.1111     0.7291    -0.0214 C.ar    
   5 C5             3.5000     0.8990    -0.0438 C.ar    
   6 C6             4.0324     2.1509    -0.0407 C.ar    
   7 C7             3.2120     3.2853    -0.0054 C.ar    
   8 C8             1.8349     3.1321     0.0094 C.ar    
   9 C9             1.2726     1.8604    -0.0001 C.ar    
  10 O10            3.9561     4.4277     0.0233 O.3     
  11 C11            5.4514     2.6527    -0.0832 C.3     
  12 C12            5.2904     4.1381    -0.4344 C.3     
  13 C13            7.2901     1.6939     0.9270 C.ar    
  14 C14            6.1654     2.4604     1.2216 C.ar    
  15 C15            6.2817     1.9260    -1.1020 C.2     
  16 N16            7.3292     1.3984    -0.4377 N.am    
  17 O17            6.0543     1.8323    -2.2897 O.2     
  18 C18            5.9167     2.8716     2.5121 C.ar    
  19 C19            6.7876     2.5257     3.5298 C.ar    
  20 C20            7.9084     1.7657     3.2487 C.ar    
  21 C21            8.1612     1.3503     1.9579 C.ar    
  22 C22            8.3858     0.6071    -1.0731 C.3     
  23 C23            8.0016    -0.8500    -1.0556 C.ar    
  24 C24            7.2849    -1.3885    -2.1079 C.ar    
  25 C25            6.9324    -2.7251    -2.0918 C.ar    
  26 C26            7.2970    -3.5232    -1.0236 C.ar    
  27 C27            8.0144    -2.9849     0.0282 C.ar    
  28 C28            8.3706    -1.6494     0.0101 C.ar    
  29 H29           -0.8146     1.9462     0.0167 H       
  30 H30            1.5430    -1.4688    -0.0245 H       
  31 H31            4.1492     0.0361    -0.0632 H       
  32 H32            1.1965     4.0030     0.0282 H       
  33 H33            5.3719     4.2920    -1.5104 H       
  34 H34            6.0225     4.7433     0.1003 H       
  35 H35            5.0411     3.4650     2.7298 H       
  36 H36            6.5925     2.8483     4.5419 H       
  37 H37            8.5887     1.4966     4.0431 H       
  38 H38            9.0380     0.7563     1.7459 H       
  39 H39            8.5161     0.9361    -2.1040 H       
  40 H40            9.3196     0.7432    -0.5275 H       
  41 H41            7.0001    -0.7650    -2.9424 H       
  42 H42            6.3719    -3.1456    -2.9136 H       
  43 H43            7.0210    -4.5673    -1.0108 H       
  44 H44            8.2989    -3.6084     0.8629 H       
  45 H45            8.9312    -1.2288     0.8319 H       
@<TRIPOS>BOND
   1    1    2 1
   2    1    9 1
   3    1   29 1
   4    2    3 2
   5    3    4 1
   6    3   30 1
   7    4    5 ar
   8    4    9 ar
   9    5    6 ar
  10    5   31 1
  11    6    7 ar
  12    6   11 1
  13    7    8 ar
  14    7   10 1
  15    8    9 ar
  16    8   32 1
  17   10   12 1
  18   11   12 1
  19   11   14 1
  20   11   15 1
  21   12   33 1
  22   12   34 1
  23   13   14 ar
  24   13   16 1
  25   13   21 ar
  26   14   18 ar
  27   15   16 am
  28   15   17 2
  29   16   22 1
  30   18   19 ar
  31   18   35 1
  32   19   20 ar
  33   19   36 1
  34   20   21 ar
  35   20   37 1
  36   21   38 1
  37   22   23 1
  38   22   39 1
  39   22   40 1
  40   23   24 ar
  41   23   28 ar
  42   24   25 ar
  43   24   41 1
  44   25   26 ar
  45   25   42 1
  46   26   27 ar
  47   26   43 1
  48   27   28 ar
  49   27   44 1
  50   28   45 1

#	End of record

