#	Name: ASD01200066
#	Creating user name:	WinNT
#	Creation time:	15. 06. 2019 19:08

#	Modifying user name:	WinNT
#	Modification time:	15. 06. 2019 19:08

#	Program:	/corina/corina34_cracker 3.40 0067  02.08.2006

@<TRIPOS>MOLECULE
ASD01200066
  40   42    0    0    0
SMALL
NO_CHARGES


@<TRIPOS>ATOM
   1 C1             0.0388     1.2848    -0.0097 C.ar    
   2 C2            -0.0564    -0.1026     0.0451 C.ar    
   3 C3            -1.2912    -0.7150     0.0997 C.ar    
   4 C4            -2.4501     0.0505     0.1009 C.ar    
   5 C5            -2.3617     1.4502     0.0462 C.ar    
   6 C6            -1.1068     2.0620    -0.0036 C.ar    
   7 C7            -3.5864     2.2704     0.0470 C.2     
   8 N8            -3.4981     3.6131     0.1246 N.am    
   9 C9            -4.6521     4.3860     0.1254 C.2     
  10 O10           -4.6764     1.7357    -0.0223 O.2     
  11 S11            1.6222     2.0546    -0.0798 S.3     
  12 N12           -4.6790     5.6803     0.1961 N.2     
  13 C13           -5.8673     6.2547     0.1841 C.2     
  14 C14           -6.8932     5.4056     0.0993 C.2     
  15 S15           -6.2437     3.7697     0.0258 S.3     
  16 C16            1.9179     1.9885    -1.8155 C.2     
  17 N17            3.0622     2.3645    -2.4591 N.pl3   
  18 C18            2.8317     2.1372    -3.7875 C.2     
  19 N19            1.6244     1.6586    -3.8955 N.2     
  20 N20            1.0821     1.5633    -2.7342 N.2     
  21 C21            4.2830     2.9006    -1.8523 C.3     
  22 C22           -6.0507     7.7486     0.2606 C.3     
  23 N23           -3.6950    -0.5684     0.1555 N.pl3   
  24 C24           -3.7920    -2.0276     0.0687 C.3     
  25 H25            0.8413    -0.7030     0.0445 H       
  26 H26           -1.3570    -1.7922     0.1413 H       
  27 H27           -1.0308     3.1385    -0.0458 H       
  28 H28           -2.6287     4.0396     0.1799 H       
  29 H29           -7.9389     5.6746     0.0760 H       
  30 H30            3.5224     2.3203    -4.5973 H       
  31 H31            4.9552     2.0798    -1.6022 H       
  32 H32            4.7748     3.5712    -2.5569 H       
  33 H33            4.0274     3.4498    -0.9461 H       
  34 H34           -6.0574     8.1658    -0.7463 H       
  35 H35           -6.9964     7.9738     0.7536 H       
  36 H36           -5.2308     8.1866     0.8300 H       
  37 H37           -4.4987    -0.0337     0.2512 H       
  38 H38           -3.2376    -2.4782     0.8919 H       
  39 H39           -4.8386    -2.3263     0.1290 H       
  40 H40           -3.3722    -2.3639    -0.8793 H       
@<TRIPOS>BOND
   1    1    2 ar
   2    1   11 1
   3    1    6 ar
   4    2    3 ar
   5    2   25 1
   6    3    4 ar
   7    3   26 1
   8    4    5 ar
   9    4   23 1
  10    5    6 ar
  11    5    7 1
  12    6   27 1
  13    7    8 am
  14    7   10 2
  15    8    9 1
  16    8   28 1
  17    9   12 2
  18    9   15 1
  19   11   16 1
  20   12   13 1
  21   13   14 2
  22   13   22 1
  23   14   15 1
  24   14   29 1
  25   16   17 1
  26   16   20 2
  27   17   18 1
  28   17   21 1
  29   18   19 2
  30   18   30 1
  31   19   20 1
  32   21   31 1
  33   21   32 1
  34   21   33 1
  35   22   34 1
  36   22   35 1
  37   22   36 1
  38   23   24 1
  39   23   37 1
  40   24   38 1
  41   24   39 1
  42   24   40 1

#	End of record

