#	Name: ASD09530018
#	Creating user name:	WinNT
#	Creation time:	15. 06. 2019 21:22

#	Modifying user name:	WinNT
#	Modification time:	15. 06. 2019 21:22

#	Program:	/corina/corina34_cracker 3.40 0067  02.08.2006

@<TRIPOS>MOLECULE
ASD09530018
  36   38    0    0    0
SMALL
NO_CHARGES


@<TRIPOS>ATOM
   1 C1            -0.0168     1.3894     0.0097 C.ar    
   2 C2             0.0021    -0.0041     0.0020 C.ar    
   3 C3             1.2212    -0.6792    -0.0132 C.ar    
   4 C4             2.4023     0.0348    -0.0207 C.ar    
   5 C5             2.3775     1.4178    -0.0126 C.ar    
   6 C6             1.1704     2.0931     0.0021 C.ar    
   7 C7            -1.2707    -0.7659     0.0106 C.ar    
   8 C8             3.6706     2.1918    -0.0203 C.3     
   9 C9             4.0883     2.4579    -1.4436 C.2     
  10 O10            5.2183     3.1371    -1.6955 O.3     
  11 O11            3.4060     2.0599    -2.3579 O.2     
  12 N12           -2.3199    -0.3037     0.6830 N.ar    
  13 C13           -3.4509    -0.9852     0.6879 C.ar    
  14 C14           -3.5456    -2.1792    -0.0055 C.ar    
  15 N15           -2.5050    -2.6437    -0.6762 N.ar    
  16 C16           -1.3721    -1.9669    -0.6918 C.ar    
  17 C17           -0.1867    -2.4966    -1.4568 C.3     
  18 C18            5.5585     3.3564    -3.0900 C.3     
  19 C19            0.3641    -3.8642    -1.0479 C.3     
  20 C20           -0.4130    -3.7128    -2.3571 C.3     
  21 H21           -0.9588     1.9177     0.0170 H       
  22 H22            1.2417    -1.7589    -0.0189 H       
  23 H23            3.3476    -0.4873    -0.0325 H       
  24 H24            1.1569     3.1730     0.0084 H       
  25 H25            3.5301     3.1391     0.5003 H       
  26 H26            4.4442     1.6118     0.4830 H       
  27 H27           -4.3036    -0.6103     1.2344 H       
  28 H28           -4.4724    -2.7336     0.0014 H       
  29 H29            0.5285    -1.7464    -1.7942 H       
  30 H30            6.4920     3.9158    -3.1526 H       
  31 H31            5.6765     2.3955    -3.5907 H       
  32 H32            4.7625     3.9227    -3.5734 H       
  33 H33            1.4416    -4.0139    -1.1166 H       
  34 H34           -0.1309    -4.3808    -0.2256 H       
  35 H35           -1.4194    -4.1298    -2.3961 H       
  36 H36            0.1532    -3.7629    -3.2871 H       
@<TRIPOS>BOND
   1    1    2 ar
   2    1    6 ar
   3    1   21 1
   4    2    3 ar
   5    2    7 1
   6    3    4 ar
   7    3   22 1
   8    4    5 ar
   9    4   23 1
  10    5    6 ar
  11    5    8 1
  12    6   24 1
  13    7   12 ar
  14    7   16 ar
  15    8    9 1
  16    8   25 1
  17    8   26 1
  18    9   10 1
  19    9   11 2
  20   10   18 1
  21   12   13 ar
  22   13   14 ar
  23   13   27 1
  24   14   15 ar
  25   14   28 1
  26   15   16 ar
  27   16   17 1
  28   17   19 1
  29   17   20 1
  30   17   29 1
  31   18   30 1
  32   18   31 1
  33   18   32 1
  34   19   20 1
  35   19   33 1
  36   19   34 1
  37   20   35 1
  38   20   36 1

#	End of record

