#	Name: ASD01001271
#	Creating user name:	WinNT
#	Creation time:	15. 06. 2019 18:55

#	Modifying user name:	WinNT
#	Modification time:	15. 06. 2019 18:55

#	Program:	/corina/corina34_cracker 3.40 0067  02.08.2006

@<TRIPOS>MOLECULE
ASD01001271
  55   58    0    0    0
SMALL
NO_CHARGES


@<TRIPOS>ATOM
   1 C1            -0.0895     1.4849     0.1308 C.3     
   2 C2            -0.0091    -0.0094     0.3727 C.2     
   3 N3            -0.6026    -0.2179     1.5646 N.am    
   4 C4            -1.0422     0.9249     2.1037 C.2     
   5 N5            -0.7841     1.9923     1.3266 N.am    
   6 C6             1.3121     2.0893     0.0253 C.3     
   7 C7             1.9893     1.5735    -1.2182 C.2     
   8 O8             1.3679     0.8984    -2.0115 O.2     
   9 O9             0.4856    -0.8435    -0.3550 O.2     
  10 N10            3.2854     1.8623    -1.4489 N.am    
  11 C11            3.8862     1.4712    -2.6505 C.ar    
  12 C12            4.8465     2.2800    -3.2439 C.ar    
  13 C13            5.4377     1.8911    -4.4300 C.ar    
  14 C14            5.0740     0.6980    -5.0269 C.ar    
  15 C15            4.1177    -0.1095    -4.4388 C.ar    
  16 C16            3.5276     0.2706    -3.2493 C.ar    
  17 S17           -1.8431     1.0186     3.6139 S.2     
  18 C18           -1.1266     3.3875     1.6139 C.3     
  19 C19           -0.0362     4.0108     2.4876 C.3     
  20 C20           -0.3885     5.4459     2.7831 C.2     
  21 S21            0.0810     6.8280     1.8018 S.3     
  22 C22           -0.7464     7.9259     2.8989 C.2     
  23 C23           -1.3024     7.2309     3.8923 C.2     
  24 C24           -1.1091     5.8618     3.8258 C.2     
  25 C25           -0.7429    -1.4782     2.1655 C.ar    
  26 C26           -2.0031    -1.9454     2.5128 C.ar    
  27 C27           -2.1406    -3.1856     3.1042 C.ar    
  28 C28           -1.0196    -3.9644     3.3517 C.ar    
  29 C29            0.2401    -3.4977     3.0052 C.ar    
  30 C30            0.3780    -2.2605     2.4078 C.ar    
  31 O31           -1.1554    -5.1852     3.9344 O.3     
  32 C32            0.0411    -5.9333     4.1598 C.3     
  33 H33           -0.6662     1.6971    -0.7695 H       
  34 H34            1.2365     3.1754    -0.0261 H       
  35 H35            1.8964     1.8068     0.9010 H       
  36 H36            3.8016     2.3414    -0.7819 H       
  37 H37            5.1305     3.2124    -2.7786 H       
  38 H38            6.1845     2.5197    -4.8920 H       
  39 H39            5.5374     0.3962    -5.9545 H       
  40 H40            3.8353    -1.0404    -4.9078 H       
  41 H41            2.7811    -0.3607    -2.7902 H       
  42 H42           -1.2046     3.9424     0.6790 H       
  43 H43           -2.0804     3.4265     2.1402 H       
  44 H44            0.0417     3.4559     3.4225 H       
  45 H45            0.9175     3.9718     1.9613 H       
  46 H46           -0.7963     8.9988     2.7856 H       
  47 H47           -1.8640     7.7003     4.6864 H       
  48 H48           -1.5058     5.1825     4.5657 H       
  49 H49           -2.8758    -1.3388     2.3208 H       
  50 H50           -3.1210    -3.5491     3.3744 H       
  51 H51            1.1126    -4.1041     3.1988 H       
  52 H52            1.3587    -1.8974     2.1378 H       
  53 H53            0.5395    -6.1169     3.2080 H       
  54 H54            0.7048    -5.3685     4.8145 H       
  55 H55           -0.2084    -6.8851     4.6289 H       
@<TRIPOS>BOND
   1    1    2 1
   2    1    6 1
   3    1    5 1
   4    1   33 1
   5    2    3 am
   6    2    9 2
   7    3    4 am
   8    3   25 1
   9    4    5 am
  10    4   17 2
  11    5   18 1
  12    6    7 1
  13    6   34 1
  14    6   35 1
  15    7    8 2
  16    7   10 am
  17   10   11 1
  18   10   36 1
  19   11   12 ar
  20   11   16 ar
  21   12   13 ar
  22   12   37 1
  23   13   14 ar
  24   13   38 1
  25   14   15 ar
  26   14   39 1
  27   15   16 ar
  28   15   40 1
  29   16   41 1
  30   18   19 1
  31   18   42 1
  32   18   43 1
  33   19   20 1
  34   19   44 1
  35   19   45 1
  36   20   21 1
  37   20   24 2
  38   21   22 1
  39   22   23 2
  40   22   46 1
  41   23   24 1
  42   23   47 1
  43   24   48 1
  44   25   26 ar
  45   25   30 ar
  46   26   27 ar
  47   26   49 1
  48   27   28 ar
  49   27   50 1
  50   28   29 ar
  51   28   31 1
  52   29   30 ar
  53   29   51 1
  54   30   52 1
  55   31   32 1
  56   32   53 1
  57   32   54 1
  58   32   55 1

#	End of record

