#	Name: ASD01900601
#	Creating user name:	WinNT
#	Creation time:	15. 06. 2019 19:52

#	Modifying user name:	WinNT
#	Modification time:	15. 06. 2019 19:52

#	Program:	/corina/corina34_cracker 3.40 0067  02.08.2006

@<TRIPOS>MOLECULE
ASD01900601
  40   43    0    0    0
SMALL
NO_CHARGES


@<TRIPOS>ATOM
   1 C1            -0.0165     1.3649     0.0095 C.2     
   2 N2             0.0021    -0.0041     0.0020 N.pl3   
   3 C3             1.3264    -0.3943    -0.0127 C.ar    
   4 C4             2.0849     0.7905    -0.0136 C.ar    
   5 N5             1.2104     1.8252     0.0003 N.2     
   6 C6             3.4812     0.7124    -0.0269 C.ar    
   7 C7             4.0947    -0.5081    -0.0390 C.ar    
   8 C8             3.3465    -1.6766    -0.0381 C.ar    
   9 C9             1.9683    -1.6247    -0.0251 C.ar    
  10 C10           -1.2376     2.1987     0.0201 C.ar    
  11 C11           -1.1255     3.5914     0.0271 C.ar    
  12 C12           -2.2798     4.3592     0.0370 C.ar    
  13 C13           -3.5073     3.7093     0.0395 C.ar    
  14 C14           -3.5428     2.3229     0.0322 C.ar    
  15 N15           -2.4317     1.6179     0.0174 N.ar    
  16 F16           -4.6557     4.4209     0.0495 F       
  17 F17            0.0899     4.1812     0.0248 F       
  18 S18            5.8542    -0.5994    -0.0563 S.o2    
  19 O19            6.1342    -1.8499    -0.6706 O.2     
  20 O20            6.2625     0.6207    -0.6594 O.2     
  21 C21            6.3231    -0.6317     1.6957 C.3     
  22 C22            7.8235    -0.7102     1.8128 C.ar    
  23 C23            8.5746     0.4504     1.8720 C.ar    
  24 C24            9.9518     0.3776     1.9800 C.ar    
  25 C25           10.5768    -0.8545     2.0287 C.ar    
  26 C26            9.8260    -2.0134     1.9691 C.ar    
  27 C27            8.4490    -1.9413     1.8669 C.ar    
  28 Cl28           7.7891     1.9973     1.8102 Cl      
  29 H29           -0.7707    -0.5903     0.0065 H       
  30 H30            4.0735     1.6155    -0.0281 H       
  31 H31            3.8469    -2.6337    -0.0481 H       
  32 H32            1.3912    -2.5375    -0.0243 H       
  33 H33           -2.2257     5.4378     0.0429 H       
  34 H34           -4.4957     1.8147     0.0341 H       
  35 H35            5.9675     0.2757     2.1838 H       
  36 H36            5.8752    -1.5018     2.1757 H       
  37 H37           10.5386     1.2831     2.0259 H       
  38 H38           11.6520    -0.9115     2.1130 H       
  39 H39           10.3148    -2.9758     2.0064 H       
  40 H40            7.8625    -2.8472     1.8248 H       
@<TRIPOS>BOND
   1    1    2 1
   2    1    5 2
   3    1   10 1
   4    2    3 1
   5    2   29 1
   6    3    4 ar
   7    3    9 ar
   8    4    5 1
   9    4    6 ar
  10    6    7 ar
  11    6   30 1
  12    7    8 ar
  13    7   18 1
  14    8    9 ar
  15    8   31 1
  16    9   32 1
  17   10   11 ar
  18   10   15 ar
  19   11   12 ar
  20   11   17 1
  21   12   13 ar
  22   12   33 1
  23   13   14 ar
  24   13   16 1
  25   14   15 ar
  26   14   34 1
  27   18   19 2
  28   18   20 2
  29   18   21 1
  30   21   22 1
  31   21   35 1
  32   21   36 1
  33   22   23 ar
  34   22   27 ar
  35   23   24 ar
  36   23   28 1
  37   24   25 ar
  38   24   37 1
  39   25   26 ar
  40   25   38 1
  41   26   27 ar
  42   26   39 1
  43   27   40 1

#	End of record

