#	Name: ASD01912937
#	Creating user name:	WinNT
#	Creation time:	15. 06. 2019 20:00

#	Modifying user name:	WinNT
#	Modification time:	15. 06. 2019 20:00

#	Program:	/corina/corina34_cracker 3.40 0067  02.08.2006

@<TRIPOS>MOLECULE
ASD01912937
  37   39    0    0    0
SMALL
NO_CHARGES


@<TRIPOS>ATOM
   1 C1            -0.0173     1.4278     0.0099 C.ar    
   2 C2             0.0021    -0.0041     0.0020 C.1     
   3 C3             0.0180    -1.1779    -0.0044 C.1     
   4 C4             0.0374    -2.6098    -0.0123 C.ar    
   5 C5            -1.1617    -3.3283    -0.0047 C.ar    
   6 C6             1.2555    -3.2954    -0.0334 C.ar    
   7 C7             1.2669    -4.6740    -0.0408 C.ar    
   8 C8             0.0750    -5.3797    -0.0275 C.ar    
   9 C9            -1.1357    -4.7068    -0.0123 C.ar    
  10 N10            1.1330     2.0990     0.0025 N.ar    
  11 C11            1.1603     3.4126     0.0087 C.ar    
  12 C12           -0.0323     4.1436     0.0224 C.ar    
  13 C13           -1.2579     3.4705     0.0312 C.ar    
  14 C14           -1.2448     2.0999     0.0194 C.ar    
  15 C15            2.4710     4.1563     0.0022 C.3     
  16 C16            2.3306     5.4503    -0.7957 C.3     
  17 N17            1.1787     6.2247    -0.3415 N.am    
  18 C18            0.0321     5.6176     0.0259 C.2     
  19 O19           -0.9357     6.2759     0.3552 O.2     
  20 C20            1.2704     7.6857    -0.2840 C.3     
  21 C21            0.8230     8.2778    -1.6219 C.3     
  22 Cl22           0.0985    -7.1155    -0.0369 Cl      
  23 H23           -2.1063    -2.8049     0.0074 H       
  24 H24            2.1855    -2.7464    -0.0442 H       
  25 H25            2.2072    -5.2050    -0.0575 H       
  26 H26           -2.0613    -5.2632    -0.0019 H       
  27 H27           -2.1900     4.0159     0.0426 H       
  28 H28           -2.1712     1.5448     0.0256 H       
  29 H29            2.7584     4.3921     1.0268 H       
  30 H30            3.2394     3.5317    -0.4533 H       
  31 H31            3.2342     6.0470    -0.6715 H       
  32 H32            2.2052     5.2081    -1.8510 H       
  33 H33            0.6264     8.0592     0.5121 H       
  34 H34            2.3015     7.9774    -0.0842 H       
  35 H35            1.4671     7.9044    -2.4181 H       
  36 H36           -0.2080     7.9861    -1.8218 H       
  37 H37            0.8913     9.3649    -1.5792 H       
@<TRIPOS>BOND
   1    1    2 1
   2    1   10 ar
   3    1   14 ar
   4    2    3 3
   5    3    4 1
   6    4    5 ar
   7    4    6 ar
   8    5    9 ar
   9    5   23 1
  10    6    7 ar
  11    6   24 1
  12    7    8 ar
  13    7   25 1
  14    8    9 ar
  15    8   22 1
  16    9   26 1
  17   10   11 ar
  18   11   12 ar
  19   11   15 1
  20   12   13 ar
  21   12   18 1
  22   13   14 ar
  23   13   27 1
  24   14   28 1
  25   15   16 1
  26   15   29 1
  27   15   30 1
  28   16   17 1
  29   16   31 1
  30   16   32 1
  31   17   18 am
  32   17   20 1
  33   18   19 2
  34   20   21 1
  35   20   33 1
  36   20   34 1
  37   21   35 1
  38   21   36 1
  39   21   37 1

#	End of record

