#	Name: ASD01841013
#	Creating user name:	WinNT
#	Creation time:	15. 06. 2019 19:38

#	Modifying user name:	WinNT
#	Modification time:	15. 06. 2019 19:38

#	Program:	/corina/corina34_cracker 3.40 0067  02.08.2006

@<TRIPOS>MOLECULE
ASD01841013
  95   98    0    0    0
SMALL
NO_CHARGES


@<TRIPOS>ATOM
   1 C1            -0.0178     1.4648     0.0101 C.3     
   2 N2             0.0021    -0.0041     0.0020 N.4     
   3 C3             0.7126    -0.4907     1.1921 C.3     
   4 C4             2.8879    -0.4680     2.4208 C.3     
   5 N5             4.2661     0.0405     2.4103 N.4     
   6 C6             4.2462     1.5094     2.4184 C.3     
   7 C7            -1.3761    -0.5125     0.0124 C.3     
   8 C8            -2.1161    -0.0057    -1.2271 C.3     
   9 C9            -3.5515    -0.5353    -1.2162 C.3     
  10 C10           -4.2915    -0.0285    -2.4557 C.3     
  11 C11           -5.7373    -0.4472    -2.3838 C.ar    
  12 C12           -4.2061     1.4751    -2.5120 C.ar    
  13 O13           -3.6925    -0.5837    -3.6283 O.3     
  14 C14           -6.4478    -0.6812    -3.5463 C.ar    
  15 C15           -7.7740    -1.0653    -3.4803 C.ar    
  16 C16           -8.3898    -1.2157    -2.2519 C.ar    
  17 C17           -7.6791    -0.9825    -1.0894 C.ar    
  18 C18           -6.3516    -0.6027    -1.1552 C.ar    
  19 C19           -4.2142     2.1226    -3.7332 C.ar    
  20 C20           -4.1359     3.5018    -3.7848 C.ar    
  21 C21           -4.0499     4.2334    -2.6151 C.ar    
  22 C22           -4.0426     3.5859    -1.3938 C.ar    
  23 C23           -4.1254     2.2070    -1.3421 C.ar    
  24 C24            4.9766    -0.4461     3.6005 C.3     
  25 C25            6.4120     0.0835     3.5896 C.3     
  26 C26            7.1520    -0.4234     4.8291 C.3     
  27 C27            8.5874     0.1062     4.8182 C.3     
  28 O28            8.5709     1.5296     4.9435 O.3     
  29 C29            9.3518    -0.4907     5.9717 C.ar    
  30 C30            9.2541    -0.2763     3.5220 C.ar    
  31 C31           10.2393     0.5322     2.9866 C.ar    
  32 C32           10.8508     0.1813     1.7976 C.ar    
  33 C33           10.4776    -0.9783     1.1443 C.ar    
  34 C34            9.4931    -1.7873     1.6802 C.ar    
  35 C35            8.8846    -1.4387     2.8714 C.ar    
  36 C36           10.3817     0.2195     6.5597 C.ar    
  37 C37           11.0829    -0.3281     7.6177 C.ar    
  38 C38           10.7539    -1.5857     8.0879 C.ar    
  39 C39            9.7234    -2.2955     7.5005 C.ar    
  40 C40            9.0194    -1.7462     6.4453 C.ar    
  41 C41            4.9537    -0.4332     1.2017 C.3     
  42 C42            0.6897    -0.4778    -1.2066 C.3     
  43 C43            2.1480     0.0389     1.1813 C.3     
  44 H44            1.0047     1.8421     0.0024 H       
  45 H45           -0.5450     1.8259    -0.8730 H       
  46 H46           -0.5280     1.8163     0.9069 H       
  47 H47            0.2024    -0.1392     2.0889 H       
  48 H48            0.7273    -1.5806     1.1861 H       
  49 H49            2.9027    -1.5578     2.4148 H       
  50 H50            2.3778    -0.1164     3.3176 H       
  51 H51            3.7360     1.8609     3.3152 H       
  52 H52            5.2688     1.8866     2.4107 H       
  53 H53            3.7190     1.8704     1.5354 H       
  54 H54           -1.3613    -1.6024     0.0065 H       
  55 H55           -1.8863    -0.1610     0.9092 H       
  56 H56           -2.1309     1.0842    -1.2211 H       
  57 H57           -1.6059    -0.3572    -2.1239 H       
  58 H58           -3.5367    -1.6252    -1.2222 H       
  59 H59           -4.0616    -0.1838    -0.3194 H       
  60 H60           -3.7116    -1.5500    -3.6598 H       
  61 H61           -5.9667    -0.5637    -4.5061 H       
  62 H62           -8.3293    -1.2475    -4.3886 H       
  63 H63           -9.4262    -1.5151    -2.2003 H       
  64 H64           -8.1602    -1.0997    -0.1296 H       
  65 H65           -5.7963    -0.4205    -0.2470 H       
  66 H66           -4.2815     1.5510    -4.6471 H       
  67 H67           -4.1416     4.0077    -4.7390 H       
  68 H68           -3.9880     5.3109    -2.6554 H       
  69 H69           -3.9751     4.1575    -0.4799 H       
  70 H70           -4.1197     1.7011    -0.3879 H       
  71 H71            4.4664    -0.0946     4.4972 H       
  72 H72            4.9914    -1.5360     3.5945 H       
  73 H73            6.9222    -0.2681     2.6928 H       
  74 H74            6.3972     1.1733     3.5956 H       
  75 H75            6.6418    -0.0719     5.7259 H       
  76 H76            7.1668    -1.5133     4.8231 H       
  77 H77            8.1554     1.8481     5.7565 H       
  78 H78           10.5308     1.4382     3.4970 H       
  79 H79           11.6200     0.8134     1.3789 H       
  80 H80           10.9550    -1.2521     0.2150 H       
  81 H81            9.2013    -2.6932     1.1696 H       
  82 H82            8.1155    -2.0707     3.2901 H       
  83 H83           10.6387     1.2020     6.1923 H       
  84 H84           11.8880     0.2265     8.0767 H       
  85 H85           11.3022    -2.0138     8.9141 H       
  86 H86            9.4666    -3.2782     7.8676 H       
  87 H87            8.2142    -2.3007     5.9863 H       
  88 H88            4.4265    -0.0722     0.3187 H       
  89 H89            5.9763    -0.0560     1.1940 H       
  90 H90            4.9685    -1.5231     1.1957 H       
  91 H91            1.7123    -0.1005    -1.2143 H       
  92 H92            0.7044    -1.5677    -1.2126 H       
  93 H93            0.1625    -0.1167    -2.0897 H       
  94 H94            2.6581    -0.3126     0.2845 H       
  95 H95            2.1332     1.1288     1.1872 H       
@<TRIPOS>BOND
   1    1    2 1
   2    1   44 1
   3    1   45 1
   4    1   46 1
   5    2    3 1
   6    2    7 1
   7    2   42 1
   8    3   43 1
   9    3   47 1
  10    3   48 1
  11    4    5 1
  12    4   43 1
  13    4   49 1
  14    4   50 1
  15    5    6 1
  16    5   24 1
  17    5   41 1
  18    6   51 1
  19    6   52 1
  20    6   53 1
  21    7    8 1
  22    7   54 1
  23    7   55 1
  24    8    9 1
  25    8   56 1
  26    8   57 1
  27    9   10 1
  28    9   58 1
  29    9   59 1
  30   10   11 1
  31   10   12 1
  32   10   13 1
  33   11   14 ar
  34   11   18 ar
  35   12   19 ar
  36   12   23 ar
  37   13   60 1
  38   14   15 ar
  39   14   61 1
  40   15   16 ar
  41   15   62 1
  42   16   17 ar
  43   16   63 1
  44   17   18 ar
  45   17   64 1
  46   18   65 1
  47   19   20 ar
  48   19   66 1
  49   20   21 ar
  50   20   67 1
  51   21   22 ar
  52   21   68 1
  53   22   23 ar
  54   22   69 1
  55   23   70 1
  56   24   25 1
  57   24   71 1
  58   24   72 1
  59   25   26 1
  60   25   73 1
  61   25   74 1
  62   26   27 1
  63   26   75 1
  64   26   76 1
  65   27   28 1
  66   27   29 1
  67   27   30 1
  68   28   77 1
  69   29   36 ar
  70   29   40 ar
  71   30   31 ar
  72   30   35 ar
  73   31   32 ar
  74   31   78 1
  75   32   33 ar
  76   32   79 1
  77   33   34 ar
  78   33   80 1
  79   34   35 ar
  80   34   81 1
  81   35   82 1
  82   36   37 ar
  83   36   83 1
  84   37   38 ar
  85   37   84 1
  86   38   39 ar
  87   38   85 1
  88   39   40 ar
  89   39   86 1
  90   40   87 1
  91   41   88 1
  92   41   89 1
  93   41   90 1
  94   42   91 1
  95   42   92 1
  96   42   93 1
  97   43   94 1
  98   43   95 1

#	End of record

