#	Name: ASD02508475
#	Creating user name:	WinNT
#	Creation time:	15. 06. 2019 20:24

#	Modifying user name:	WinNT
#	Modification time:	15. 06. 2019 20:24

#	Program:	/corina/corina34_cracker 3.40 0067  02.08.2006

@<TRIPOS>MOLECULE
ASD02508475
  32   34    0    0    0
SMALL
NO_CHARGES


@<TRIPOS>ATOM
   1 N1            -0.0232     1.3275    -0.0153 N.2     
   2 C2             0.0111    -0.0126    -0.0705 C.2     
   3 C3             1.2986    -0.4029    -0.0322 C.2     
   4 N4             2.0572     0.7378     0.0484 N.pl3   
   5 C5             1.1949     1.7893     0.0561 C.2     
   6 C6             3.4497     0.8059     0.1106 C.ar    
   7 N7             4.1210     0.0841     1.0010 N.ar    
   8 C8             4.1575     1.6278    -0.7644 C.ar    
   9 C9             5.5366     1.6611    -0.6643 C.ar    
  10 N10            6.1358     0.9167     0.2528 N.ar    
  11 C11            5.4368     0.1450     1.0630 C.ar    
  12 S12            1.8954    -2.0602    -0.0759 S.o2    
  13 N13            1.9154    -2.5322    -1.6631 N.am    
  14 C14            2.7719    -1.9002    -2.5697 C.ar    
  15 C15            3.5157    -2.6560    -3.4664 C.ar    
  16 C16            4.3608    -2.0295    -4.3614 C.ar    
  17 C17            4.4666    -0.6489    -4.3651 C.ar    
  18 C18            3.7259     0.1066    -3.4720 C.ar    
  19 C19            2.8756    -0.5153    -2.5787 C.ar    
  20 O20            3.2518    -2.0094     0.3447 O.2     
  21 O21            0.9114    -2.8581     0.5677 O.2     
  22 Cl22           6.2715    -0.8105     2.2480 Cl      
  23 F23            5.2941    -0.0382    -5.2412 F       
  24 H24           -0.8467    -0.6657    -0.1343 H       
  25 H25            1.4719     2.8316     0.1120 H       
  26 H26            3.6419     2.2238    -1.5029 H       
  27 H27            6.1177     2.2862    -1.3260 H       
  28 H28            1.3329    -3.2472    -1.9638 H       
  29 H29            3.4338    -3.7329    -3.4636 H       
  30 H30            4.9397    -2.6169    -5.0587 H       
  31 H31            3.8102     1.1833    -3.4764 H       
  32 H32            2.2980     0.0744    -1.8823 H       
@<TRIPOS>BOND
   1    1    2 1
   2    1    5 2
   3    2    3 2
   4    2   24 1
   5    3    4 1
   6    3   12 1
   7    4    5 1
   8    4    6 1
   9    5   25 1
  10    6    7 ar
  11    6    8 ar
  12    7   11 ar
  13    8    9 ar
  14    8   26 1
  15    9   10 ar
  16    9   27 1
  17   10   11 ar
  18   11   22 1
  19   12   13 am
  20   12   20 2
  21   12   21 2
  22   13   14 1
  23   13   28 1
  24   14   15 ar
  25   14   19 ar
  26   15   16 ar
  27   15   29 1
  28   16   17 ar
  29   16   30 1
  30   17   18 ar
  31   17   23 1
  32   18   19 ar
  33   18   31 1
  34   19   32 1

#	End of record

