#	Name: ASD01730058
#	Creating user name:	WinNT
#	Creation time:	15. 06. 2019 19:23

#	Modifying user name:	WinNT
#	Modification time:	15. 06. 2019 19:23

#	Program:	/corina/corina34_cracker 3.40 0067  02.08.2006

@<TRIPOS>MOLECULE
ASD01730058
  33   35    0    0    0
SMALL
NO_CHARGES


@<TRIPOS>ATOM
   1 N1             0.1516     1.0850     0.3648 N.am    
   2 C2             0.0799    -0.2580     0.2772 C.2     
   3 S3             1.4903    -1.2059     0.4854 S.2     
   4 N4            -1.1021    -0.8548     0.0257 N.am    
   5 C5            -1.1620    -2.2410    -0.1512 C.ar    
   6 C6            -0.5050    -3.0846     0.7352 C.ar    
   7 C7            -0.5663    -4.4538     0.5575 C.ar    
   8 C8            -1.2811    -4.9838    -0.5028 C.ar    
   9 C9            -1.9354    -4.1459    -1.3865 C.ar    
  10 C10           -1.8833    -2.7768    -1.2101 C.ar    
  11 Cl11           0.2543    -5.5097     1.6645 Cl      
  12 N12            1.4423     2.9838     0.6653 N.2     
  13 C13            1.3331     1.6893     0.7378 C.2     
  14 S14            2.6740     0.6979     1.3063 S.3     
  15 C15            4.0560     1.6885     0.6836 C.3     
  16 C16            3.8271     3.1356     1.0390 C.ar    
  17 C17            2.5514     3.6934     1.0145 C.ar    
  18 C18            4.9141     3.9116     1.3953 C.ar    
  19 C19            4.7448     5.2417     1.7319 C.ar    
  20 C20            3.4812     5.8047     1.7146 C.ar    
  21 C21            2.3900     5.0430     1.3610 C.ar    
  22 H22           -0.6271     1.6265     0.1616 H       
  23 H23           -1.9112    -0.3230    -0.0327 H       
  24 H24            0.0533    -2.6711     1.5621 H       
  25 H25           -1.3275    -6.0540    -0.6401 H       
  26 H26           -2.4920    -4.5624    -2.2130 H       
  27 H27           -2.3991    -2.1233    -1.8981 H       
  28 H28            4.9849     1.3443     1.1383 H       
  29 H29            4.1193     1.5850    -0.3996 H       
  30 H30            5.9023     3.4759     1.4106 H       
  31 H31            5.5993     5.8414     2.0088 H       
  32 H32            3.3504     6.8435     1.9796 H       
  33 H33            1.4056     5.4870     1.3495 H       
@<TRIPOS>BOND
   1    1    2 am
   2    1   13 1
   3    1   22 1
   4    2    3 2
   5    2    4 am
   6    4    5 1
   7    4   23 1
   8    5    6 ar
   9    5   10 ar
  10    6    7 ar
  11    6   24 1
  12    7    8 ar
  13    7   11 1
  14    8    9 ar
  15    8   25 1
  16    9   10 ar
  17    9   26 1
  18   10   27 1
  19   12   13 2
  20   12   17 1
  21   13   14 1
  22   14   15 1
  23   15   16 1
  24   15   28 1
  25   15   29 1
  26   16   17 ar
  27   16   18 ar
  28   17   21 ar
  29   18   19 ar
  30   18   30 1
  31   19   20 ar
  32   19   31 1
  33   20   21 ar
  34   20   32 1
  35   21   33 1

#	End of record

