#	Name: ASD01120113
#	Creating user name:	WinNT
#	Creation time:	15. 06. 2019 18:59

#	Modifying user name:	WinNT
#	Modification time:	15. 06. 2019 18:59

#	Program:	/corina/corina34_cracker 3.40 0067  02.08.2006

@<TRIPOS>MOLECULE
ASD01120113
  33   35    0    0    0
SMALL
NO_CHARGES


@<TRIPOS>ATOM
   1 C1            -0.0126     1.3872     0.0954 C.ar    
   2 C2             0.0731     0.1636    -0.5537 C.ar    
   3 C3             1.2819    -0.5132    -0.5984 C.ar    
   4 C4             2.4042     0.0355     0.0067 C.ar    
   5 C5             2.3122     1.2612     0.6553 C.ar    
   6 C6             1.1058     1.9322     0.6975 C.ar    
   7 N7             3.6247    -0.6439    -0.0357 N.pl3   
   8 C8             4.8099     0.0664    -0.1479 C.2     
   9 N9             6.0005    -0.4453    -0.0804 N.2     
  10 C10            7.0223     0.3901    -0.2103 C.2     
  11 C11            6.6925     1.6796    -0.3983 C.2     
  12 S12            4.9348     1.8031    -0.4119 S.3     
  13 C13            8.4321    -0.0670    -0.1519 C.ar    
  14 C14            8.7228    -1.4205     0.0457 C.ar    
  15 C15           10.0407    -1.8411     0.0989 C.ar    
  16 C16           11.0689    -0.9211    -0.0436 C.ar    
  17 C17           10.7811     0.4230    -0.2398 C.ar    
  18 C18            9.4706     0.8500    -0.2994 C.ar    
  19 O19           -1.0276    -0.3711    -1.1448 O.3     
  20 O20           12.3619    -1.3365     0.0095 O.3     
  21 O21            7.7144    -2.3204     0.1856 O.3     
  22 H22           -0.9535     1.9165     0.1262 H       
  23 H23            1.3504    -1.4657    -1.1027 H       
  24 H24            3.1846     1.6891     1.1268 H       
  25 H25            1.0363     2.8848     1.2016 H       
  26 H26            3.6426    -1.6125     0.0134 H       
  27 H27            7.3856     2.4983    -0.5236 H       
  28 H28           10.2683    -2.8857     0.2517 H       
  29 H29           11.5852     1.1355    -0.3502 H       
  30 H30            9.2498     1.8961    -0.4521 H       
  31 H31           -1.1427    -0.1119    -2.0693 H       
  32 H32           12.7304    -1.5857    -0.8491 H       
  33 H33            7.4163    -2.7098    -0.6479 H       
@<TRIPOS>BOND
   1    1    2 ar
   2    1    6 ar
   3    1   22 1
   4    2    3 ar
   5    2   19 1
   6    3    4 ar
   7    3   23 1
   8    4    5 ar
   9    4    7 1
  10    5    6 ar
  11    5   24 1
  12    6   25 1
  13    7    8 1
  14    7   26 1
  15    8    9 2
  16    8   12 1
  17    9   10 1
  18   10   11 2
  19   10   13 1
  20   11   12 1
  21   11   27 1
  22   13   14 ar
  23   13   18 ar
  24   14   15 ar
  25   14   21 1
  26   15   16 ar
  27   15   28 1
  28   16   17 ar
  29   16   20 1
  30   17   18 ar
  31   17   29 1
  32   18   30 1
  33   19   31 1
  34   20   32 1
  35   21   33 1

#	End of record

