#	Name: ASD06140005
#	Creating user name:	WinNT
#	Creation time:	15. 06. 2019 21:05

#	Modifying user name:	WinNT
#	Modification time:	15. 06. 2019 21:05

#	Program:	/corina/corina34_cracker 3.40 0067  02.08.2006

@<TRIPOS>MOLECULE
ASD06140005
  22   23    0    0    0
SMALL
NO_CHARGES


@<TRIPOS>ATOM
   1 C1            -0.0166     1.3725     0.0096 C.ar    
   2 C2             0.0021    -0.0041     0.0020 C.ar    
   3 C3             1.2251    -0.6849    -0.0134 C.ar    
   4 C4             2.4233     0.0388    -0.0210 C.ar    
   5 C5             2.3934     1.4151    -0.0133 C.ar    
   6 C6             1.1762     2.0863     0.0020 C.ar    
   7 O7             1.1522     3.4436     0.0091 O.3     
   8 C8             1.2510    -2.1542    -0.0210 C.2     
   9 N9             2.3937    -2.7873    -0.0354 N.2     
  10 C10            2.4176    -4.1465    -0.0424 C.2     
  11 S11            3.8699    -5.1435    -0.0617 S.3     
  12 C12            2.8690    -6.5941    -0.0585 C.2     
  13 C13            1.5857    -6.2181    -0.0439 C.2     
  14 N14            1.3681    -4.9230    -0.0304 N.2     
  15 H15           -0.9597     1.8988     0.0169 H       
  16 H16           -0.9252    -0.5577     0.0083 H       
  17 H17            3.3695    -0.4817    -0.0325 H       
  18 H18            3.3173     1.9744    -0.0188 H       
  19 H19            1.1366     3.8413    -0.8722 H       
  20 H20            0.3254    -2.7107    -0.0148 H       
  21 H21            3.2300    -7.6120    -0.0669 H       
  22 H22            0.7782    -6.9352    -0.0393 H       
@<TRIPOS>BOND
   1    1    2 ar
   2    1    6 ar
   3    1   15 1
   4    2    3 ar
   5    2   16 1
   6    3    4 ar
   7    3    8 1
   8    4    5 ar
   9    4   17 1
  10    5    6 ar
  11    5   18 1
  12    6    7 1
  13    7   19 1
  14    8    9 2
  15    8   20 1
  16    9   10 1
  17   10   11 1
  18   10   14 2
  19   11   12 1
  20   12   13 2
  21   12   21 1
  22   13   14 1
  23   13   22 1

#	End of record

