#	Name: ASD07930095
#	Creating user name:	WinNT
#	Creation time:	15. 06. 2019 21:11

#	Modifying user name:	WinNT
#	Modification time:	15. 06. 2019 21:11

#	Program:	/corina/corina34_cracker 3.40 0067  02.08.2006

@<TRIPOS>MOLECULE
ASD07930095
  23   24    0    0    0
SMALL
NO_CHARGES


@<TRIPOS>ATOM
   1 C1            -0.0167     1.3831     0.0096 C.ar    
   2 C2             0.0021    -0.0041     0.0020 C.ar    
   3 C3             1.2079    -0.6777    -0.0131 C.ar    
   4 C4             2.3975     0.0309    -0.0202 C.ar    
   5 C5             2.3802     1.4151    -0.0126 C.ar    
   6 C6             1.1755     2.0915     0.0021 C.ar    
   7 O7            -1.2028     2.0473     0.0189 O.3     
   8 F8             3.5762    -0.6292    -0.0341 F       
   9 C9            -1.2924    -0.7756     0.0107 C.3     
  10 C10           -1.4730    -1.6896    -1.2127 C.3     
  11 C11           -2.0634    -2.7319    -0.2484 C.3     
  12 C12           -1.2408    -2.0558     0.8611 C.3     
  13 F13           -3.4462    -2.6129    -0.0725 F       
  14 F14           -1.6605    -4.0428    -0.5250 F       
  15 H15            1.2228    -1.7576    -0.0191 H       
  16 H16            3.3088     1.9665    -0.0178 H       
  17 H17            1.1623     3.1714     0.0076 H       
  18 H18           -1.5418     2.2347     0.9049 H       
  19 H19           -2.1585    -0.1469     0.2178 H       
  20 H20           -2.1919    -1.3101    -1.9389 H       
  21 H21           -0.5328    -1.9997    -1.6687 H       
  22 H22           -0.2371    -2.4661     0.9721 H       
  23 H23           -1.7721    -1.9720     1.8091 H       
@<TRIPOS>BOND
   1    1    2 ar
   2    1    6 ar
   3    1    7 1
   4    2    3 ar
   5    2    9 1
   6    3    4 ar
   7    3   15 1
   8    4    5 ar
   9    4    8 1
  10    5    6 ar
  11    5   16 1
  12    6   17 1
  13    7   18 1
  14    9   10 1
  15    9   12 1
  16    9   19 1
  17   10   11 1
  18   10   20 1
  19   10   21 1
  20   11   12 1
  21   11   13 1
  22   11   14 1
  23   12   22 1
  24   12   23 1

#	End of record

