#	Name: ASD03200095
#	Creating user name:	WinNT
#	Creation time:	15. 06. 2019 20:34

#	Modifying user name:	WinNT
#	Modification time:	15. 06. 2019 20:34

#	Program:	/corina/corina34_cracker 3.40 0067  02.08.2006

@<TRIPOS>MOLECULE
ASD03200095
  39   40    0    0    0
SMALL
NO_CHARGES


@<TRIPOS>ATOM
   1 C1            -0.0187     1.5277     0.0104 C.3     
   2 C2             2.2724     0.0094    -1.0451 C.3     
   3 C3             0.8335    -0.4924    -1.1864 C.3     
   4 C4             0.0021    -0.0041     0.0020 C.3     
   5 C5             2.2773     1.5413    -1.0485 C.3     
   6 C6             1.7914     2.8930     0.9338 C.2     
   7 C7             3.2145     3.3882     0.9096 C.3     
   8 C8             6.9183     5.0566     1.3374 C.ar    
   9 C9             5.6586     4.5037     1.2111 C.ar    
  10 C10            6.1913     6.2846     3.2623 C.ar    
  11 C11            4.9316     5.7302     3.1437 C.ar    
  12 C12            4.6611     4.8396     2.1149 C.ar    
  13 C13            7.1853     5.9440     2.3636 C.ar    
  14 C14            8.5622     6.5405     2.5030 C.3     
  15 C15            8.6379     7.8414     1.7013 C.3     
  16 O16            3.4210     4.2974     1.9925 O.3     
  17 O17            1.0290     3.2805     1.7938 O.2     
  18 N18            1.3658     2.0195    -0.0001 N.am    
  19 H19           -0.5423     1.8909    -0.8739 H       
  20 H20           -0.5252     1.8813     0.9085 H       
  21 H21            2.6939    -0.3537    -0.1077 H       
  22 H22            2.8700    -0.3583    -1.8792 H       
  23 H23            0.4044    -0.1087    -2.1120 H       
  24 H24            0.8295    -1.5822    -1.2087 H       
  25 H25            0.4450    -0.3670     0.9295 H       
  26 H26           -1.0167    -0.3812    -0.0872 H       
  27 H27            3.2857     1.9039    -0.8492 H       
  28 H28            1.9434     1.9056    -2.0201 H       
  29 H29            3.8951     2.5428     1.0101 H       
  30 H30            3.4056     3.8982    -0.0346 H       
  31 H31            7.6963     4.7921     0.6367 H       
  32 H32            5.4504     3.8110     0.4091 H       
  33 H33            6.4023     6.9783     4.0628 H       
  34 H34            4.1556     5.9963     3.8461 H       
  35 H35            8.7631     6.7491     3.5538 H       
  36 H36            9.3032     5.8366     2.1241 H       
  37 H37            7.8969     8.5454     2.0801 H       
  38 H38            9.6338     8.2729     1.8021 H       
  39 H39            8.4370     7.6329     0.6504 H       
@<TRIPOS>BOND
   1    1    4 1
   2    1   18 1
   3    1   19 1
   4    1   20 1
   5    2    5 1
   6    2   21 1
   7    2   22 1
   8    2    3 1
   9    3   23 1
  10    3   24 1
  11    3    4 1
  12    4   25 1
  13    4   26 1
  14    5   27 1
  15    5   28 1
  16    5   18 1
  17    6   18 am
  18    6    7 1
  19    6   17 2
  20    7   29 1
  21    7   30 1
  22    7   16 1
  23    8   13 ar
  24    8   31 1
  25    8    9 ar
  26    9   32 1
  27    9   12 ar
  28   10   13 ar
  29   10   33 1
  30   10   11 ar
  31   11   34 1
  32   11   12 ar
  33   12   16 1
  34   13   14 1
  35   14   35 1
  36   14   36 1
  37   14   15 1
  38   15   37 1
  39   15   38 1
  40   15   39 1

#	End of record

