#	Name: ASD01890279
#	Creating user name:	WinNT
#	Creation time:	15. 06. 2019 19:50

#	Modifying user name:	WinNT
#	Modification time:	15. 06. 2019 19:50

#	Program:	/corina/corina34_cracker 3.40 0067  02.08.2006

@<TRIPOS>MOLECULE
ASD01890279
  47   49    0    0    0
SMALL
NO_CHARGES


@<TRIPOS>ATOM
   1 C1            -0.0279     1.4541    -0.0225 C.2     
   2 C2            -0.0036    -0.0080    -0.0416 C.2     
   3 C3             1.1740    -0.6622    -0.1145 C.2     
   4 C4             2.4493     0.1057    -0.3495 C.3     
   5 C5             3.0808     0.4693     0.9958 C.3     
   6 O6             1.0138     2.0788     0.0395 O.2     
   7 O7            -1.2054     2.1099    -0.0791 O.3     
   8 C8             1.2133    -2.1257     0.0353 C.ar    
   9 C9             0.5944    -2.9463    -0.9131 C.ar    
  10 C10            0.6360    -4.3166    -0.7659 C.ar    
  11 C11            1.2876    -4.8805     0.3172 C.ar    
  12 C12            1.9021    -4.0752     1.2603 C.ar    
  13 C13            1.8747    -2.7033     1.1239 C.ar    
  14 C14            4.3139     2.5946     0.6680 C.ar    
  15 C15            4.3561     1.2372     0.7609 C.ar    
  16 C16            5.5607     0.5471     0.6426 C.ar    
  17 C17            6.7304     1.2103     0.4302 C.ar    
  18 C18            6.7264     2.6116     0.3282 C.ar    
  19 C19            7.9139     3.3309     0.1097 C.ar    
  20 C20            7.8716     4.6880     0.0168 C.ar    
  21 C21            6.6666     5.3783     0.1355 C.ar    
  22 C22            5.4972     4.7154     0.3479 C.ar    
  23 C23            5.5009     3.3136     0.4486 C.ar    
  24 C24           -1.1545     3.5378    -0.0562 C.3     
  25 C25           -2.5756     4.1001    -0.1277 C.3     
  26 H26           -0.9284    -0.5640     0.0026 H       
  27 H27            3.1434    -0.5093    -0.9223 H       
  28 H28            2.2276     1.0170    -0.9049 H       
  29 H29            2.3867     1.0842     1.5687 H       
  30 H30            3.3025    -0.4420     1.5513 H       
  31 H31            0.0850    -2.5078    -1.7584 H       
  32 H32            0.1586    -4.9517    -1.4975 H       
  33 H33            1.3165    -5.9545     0.4271 H       
  34 H34            2.4080    -4.5226     2.1031 H       
  35 H35            2.3584    -2.0764     1.8582 H       
  36 H36            3.3722     3.1158     0.7576 H       
  37 H37            5.5666    -0.5300     0.7209 H       
  38 H38            7.6567     0.6621     0.3408 H       
  39 H39            8.8551     2.8095     0.0165 H       
  40 H40            8.7855     5.2384    -0.1511 H       
  41 H41            6.6609     6.4555     0.0582 H       
  42 H42            4.5711     5.2637     0.4385 H       
  43 H43           -0.6785     3.8697     0.8665 H       
  44 H44           -0.5792     3.8946    -0.9105 H       
  45 H45           -3.1510     3.7433     0.7265 H       
  46 H46           -2.5368     5.1893    -0.1103 H       
  47 H47           -3.0516     3.7683    -1.0505 H       
@<TRIPOS>BOND
   1    1    2 1
   2    1    6 2
   3    1    7 1
   4    2    3 2
   5    2   26 1
   6    3    4 1
   7    3    8 1
   8    4    5 1
   9    4   27 1
  10    4   28 1
  11    5   15 1
  12    5   29 1
  13    5   30 1
  14    7   24 1
  15    8    9 ar
  16    8   13 ar
  17    9   10 ar
  18    9   31 1
  19   10   11 ar
  20   10   32 1
  21   11   12 ar
  22   11   33 1
  23   12   13 ar
  24   12   34 1
  25   13   35 1
  26   14   15 ar
  27   14   23 ar
  28   14   36 1
  29   15   16 ar
  30   16   17 ar
  31   16   37 1
  32   17   18 ar
  33   17   38 1
  34   18   19 ar
  35   18   23 ar
  36   19   20 ar
  37   19   39 1
  38   20   21 ar
  39   20   40 1
  40   21   22 ar
  41   21   41 1
  42   22   23 ar
  43   22   42 1
  44   24   25 1
  45   24   43 1
  46   24   44 1
  47   25   45 1
  48   25   46 1
  49   25   47 1

#	End of record

