#	Name: ASD01410646
#	Creating user name:	WinNT
#	Creation time:	15. 06. 2019 19:18

#	Modifying user name:	WinNT
#	Modification time:	15. 06. 2019 19:18

#	Program:	/corina/corina34_cracker 3.40 0067  02.08.2006

@<TRIPOS>MOLECULE
ASD01410646
  89   93    0    0    0
SMALL
NO_CHARGES


@<TRIPOS>ATOM
   1 C1             2.9832     5.4478     2.1460 C.ar    
   2 C2             3.7130     5.0856     3.2696 C.ar    
   3 C3             4.5909     4.0224     3.1913 C.ar    
   4 N4             4.7418     3.3516     2.0654 N.ar    
   5 C5             4.0643     3.6666     0.9735 C.ar    
   6 C6             3.1640     4.7244     0.9799 C.ar    
   7 O7             4.2509     2.9500    -0.1631 O.3     
   8 C8             5.2148     1.9904    -0.1620 C.ar    
   9 C9             6.5366     2.3338    -0.4346 C.ar    
  10 C10            7.5234     1.3654    -0.4358 C.ar    
  11 C11            7.2016     0.0436    -0.1652 C.ar    
  12 C12            5.8707    -0.3080     0.1103 C.ar    
  13 C13            4.8806     0.6791     0.1152 C.ar    
  14 F14            6.8561     3.6194    -0.6998 F       
  15 N15            8.1965    -0.9328    -0.1673 N.am    
  16 C16            8.8148    -1.2674     0.9826 C.2     
  17 C17            8.5702    -1.5951    -1.4195 C.3     
  18 O18            8.4256    -0.8092     2.0359 O.2     
  19 C19            9.9897    -2.2108     0.9595 C.3     
  20 C20           10.3780    -2.5769     2.3934 C.3     
  21 C21           11.5708    -3.5348     2.3700 C.3     
  22 C22           12.7554    -2.8574     1.6780 C.3     
  23 C23           12.3670    -2.4913     0.2441 C.3     
  24 C24           11.1742    -1.5334     0.2675 C.3     
  25 C25           13.9482    -3.8153     1.6546 C.3     
  26 C26            7.4833    -2.5987    -1.8097 C.3     
  27 C27            8.7187    -0.5484    -2.5255 C.3     
  28 C28            3.5495     5.8446     4.5612 C.3     
  29 C29            6.1546    -1.8639    -1.9982 C.3     
  30 C30            7.3900     0.1864    -2.7140 C.3     
  31 N31            2.4829     5.2270     5.3605 N.3     
  32 C32            2.4521     5.7855     6.7182 C.3     
  33 C33            2.6266     3.7659     5.3904 C.3     
  34 C34            1.4230     3.1481     6.1058 C.3     
  35 C35            1.3437     3.7012     7.5314 C.3     
  36 C36            1.2433     5.2280     7.4733 C.3     
  37 F37            1.2257     5.7448     8.7732 F       
  38 F38            0.0680     5.5938     6.8085 F       
  39 C39            6.3031    -0.8172    -3.1042 C.3     
  40 O40            5.0621    -0.1309    -3.2802 O.3     
  41 C41            4.8388     0.3337    -4.6130 C.3     
  42 C42            5.5202    -1.7089     0.3986 C.2     
  43 O43            6.3946    -2.5482     0.4876 O.2     
  44 O44            4.2296    -2.0603     0.5638 O.3     
  45 C45            2.3941     5.0792    -0.2660 C.3     
  46 F46            1.5603     6.1716    -0.0037 F       
  47 F47            3.2892     5.4109    -1.2888 F       
  48 F48            1.6180     3.9848    -0.6622 F       
  49 H49            2.2869     6.2725     2.1819 H       
  50 H50            5.1614     3.7367     4.0627 H       
  51 H51            8.5465     1.6385    -0.6480 H       
  52 H52            3.8548     0.4153     0.3264 H       
  53 H53            9.5168    -2.1186    -1.2852 H       
  54 H54            9.7189    -3.1150     0.4143 H       
  55 H55           10.6487    -1.6727     2.9386 H       
  56 H56            9.5341    -3.0595     2.8864 H       
  57 H57           11.8475    -3.7956     3.3916 H       
  58 H58           11.3001    -4.4390     1.8248 H       
  59 H59           13.0261    -1.9532     2.2232 H       
  60 H60           13.2109    -2.0087    -0.2489 H       
  61 H61           12.0963    -3.3955    -0.3011 H       
  62 H62           10.8976    -1.2726    -0.7540 H       
  63 H63           11.4450    -0.6293     0.8127 H       
  64 H64           13.6775    -4.7195     1.1094 H       
  65 H65           14.7921    -3.3327     1.1616 H       
  66 H66           14.2248    -4.0761     2.6762 H       
  67 H67            7.7613    -3.0915    -2.7413 H       
  68 H68            7.3775    -3.3444    -1.0217 H       
  69 H69            9.4930     0.1665    -2.2476 H       
  70 H70            8.9967    -1.0413    -3.4572 H       
  71 H71            4.4849     5.8166     5.1200 H       
  72 H72            3.2872     6.8799     4.3435 H       
  73 H73            5.3802    -2.5789    -2.2761 H       
  74 H74            5.8766    -1.3711    -1.0665 H       
  75 H75            7.1120     0.6792    -1.7824 H       
  76 H76            7.4958     0.9320    -3.5020 H       
  77 H77            3.3667     5.5118     7.2443 H       
  78 H78            2.3764     6.8714     6.6626 H       
  79 H79            2.6776     3.3850     4.3704 H       
  80 H80            3.5404     3.5017     5.9227 H       
  81 H81            0.5101     3.4004     5.5663 H       
  82 H82            1.5376     2.0648     6.1417 H       
  83 H83            0.4630     3.2970     8.0305 H       
  84 H84            2.2394     3.4158     8.0832 H       
  85 H85            6.5811    -1.3101    -4.0358 H       
  86 H86            5.6321     1.0263    -4.8940 H       
  87 H87            4.8374    -0.5143    -5.2979 H       
  88 H88            3.8766     0.8433    -4.6638 H       
  89 H89            4.0487    -2.9916     0.7514 H       
@<TRIPOS>BOND
   1    1    2 ar
   2    1    6 ar
   3    1   49 1
   4    2    3 ar
   5    2   28 1
   6    3    4 ar
   7    3   50 1
   8    4    5 ar
   9    5    6 ar
  10    5    7 1
  11    6   45 1
  12    7    8 1
  13    8    9 ar
  14    8   13 ar
  15    9   10 ar
  16    9   14 1
  17   10   11 ar
  18   10   51 1
  19   11   12 ar
  20   11   15 1
  21   12   13 ar
  22   12   42 1
  23   13   52 1
  24   15   16 am
  25   15   17 1
  26   16   18 2
  27   16   19 1
  28   17   26 1
  29   17   27 1
  30   17   53 1
  31   19   20 1
  32   19   24 1
  33   19   54 1
  34   20   21 1
  35   20   55 1
  36   20   56 1
  37   21   22 1
  38   21   57 1
  39   21   58 1
  40   22   23 1
  41   22   25 1
  42   22   59 1
  43   23   24 1
  44   23   60 1
  45   23   61 1
  46   24   62 1
  47   24   63 1
  48   25   64 1
  49   25   65 1
  50   25   66 1
  51   26   29 1
  52   26   67 1
  53   26   68 1
  54   27   30 1
  55   27   69 1
  56   27   70 1
  57   28   31 1
  58   28   71 1
  59   28   72 1
  60   29   39 1
  61   29   73 1
  62   29   74 1
  63   30   39 1
  64   30   75 1
  65   30   76 1
  66   31   32 1
  67   31   33 1
  68   32   36 1
  69   32   77 1
  70   32   78 1
  71   33   34 1
  72   33   79 1
  73   33   80 1
  74   34   35 1
  75   34   81 1
  76   34   82 1
  77   35   36 1
  78   35   83 1
  79   35   84 1
  80   36   37 1
  81   36   38 1
  82   39   40 1
  83   39   85 1
  84   40   41 1
  85   41   86 1
  86   41   87 1
  87   41   88 1
  88   42   43 2
  89   42   44 1
  90   44   89 1
  91   45   46 1
  92   45   47 1
  93   45   48 1

#	End of record

