#	Name: ASD03731539
#	Creating user name:	WinNT
#	Creation time:	15. 06. 2019 20:45

#	Modifying user name:	WinNT
#	Modification time:	15. 06. 2019 20:45

#	Program:	/corina/corina34_cracker 3.40 0067  02.08.2006

@<TRIPOS>MOLECULE
ASD03731539
  77   82    0    0    0
SMALL
NO_CHARGES


@<TRIPOS>ATOM
   1 C1             0.0175     1.5360     0.0051 C.2     
   2 C2             0.0263     0.0290     0.0051 C.3     
   3 O3             1.0642     2.1485    -0.0099 O.2     
   4 N4            -1.1535     2.2031     0.0162 N.am    
   5 C5            -1.1620     3.6681     0.0162 C.3     
   6 C6            -2.6074     4.1697     0.0299 C.3     
   7 C7            -2.6162     5.6997     0.0299 C.3     
   8 O8            -8.8416     2.8535     2.2288 O.3     
   9 C9           -10.2570     2.9193     2.4844 C.3     
  10 O10          -10.4494     4.2481     3.0044 O.3     
  11 C11           -9.4425     4.9996     2.4694 C.ar    
  12 C12           -8.4537     4.1415     1.9936 C.ar    
  13 C13           -9.2875     6.3688     2.3471 C.ar    
  14 C14           -8.1467     6.8989     1.7519 C.ar    
  15 C15           -7.1621     6.0318     1.2879 C.ar    
  16 C16           -7.3164     4.6660     1.4028 C.ar    
  17 O17           -7.8087     8.1997     1.5199 O.3     
  18 C18           -6.0596     6.8929     0.7321 C.3     
  19 C19           -6.3905     8.2870     1.2822 C.3     
  20 N20           -4.0002     6.1800     0.0430 N.am    
  21 C21           -4.7003     6.4272     1.1681 C.2     
  22 C22           -6.0235     6.8771    -0.7673 C.ar    
  23 C23           -6.9414     7.1917    -1.7444 C.ar    
  24 C24           -6.6002     7.0722    -3.0799 C.ar    
  25 C25           -5.3357     6.6355    -3.4308 C.ar    
  26 C26           -4.4132     6.3182    -2.4558 C.ar    
  27 C27           -4.7478     6.4359    -1.1090 C.ar    
  28 O28           -4.3089     6.2989     2.3089 O.2     
  29 O29            1.3761    -0.4395    -0.0142 O.3     
  30 C30            1.4972    -1.8634    -0.0158 C.3     
  31 C31            2.7748    -2.2657    -0.7554 C.3     
  32 C32            2.9044    -3.7902    -0.7571 C.3     
  33 C33            2.9682    -4.2983     0.6846 C.3     
  34 C34            1.6907    -3.8960     1.4242 C.3     
  35 C35            1.5610    -2.3715     1.4259 C.3     
  36 C36            0.4790    -4.5100     0.7202 C.3     
  37 C37            2.7109    -1.7577    -2.1971 C.3     
  38 C38            4.0435    -2.0360    -2.8954 C.3     
  39 C39            1.5847    -2.4771    -2.9420 C.3     
  40 H40           -0.4727    -0.3372     0.9023 H       
  41 H41           -0.4981    -0.3374    -0.8775 H       
  42 H42           -1.9907     1.7132     0.0241 H       
  43 H43           -0.6419     4.0344     0.9013 H       
  44 H44           -0.6587     4.0343    -0.8786 H       
  45 H45           -3.1275     3.8033    -0.8552 H       
  46 H46           -3.1106     3.8034     0.9247 H       
  47 H47           -2.0961     6.0660     0.9150 H       
  48 H48           -2.1130     6.0659    -0.8649 H       
  49 H49          -10.8197     2.7843     1.5607 H       
  50 H50          -10.5478     2.1730     3.2237 H       
  51 H51          -10.0570     7.0308     2.7159 H       
  52 H52           -6.5482     4.0041     1.0315 H       
  53 H53           -6.1684     9.0573     0.5437 H       
  54 H54           -5.8530     8.4740     2.2118 H       
  55 H55           -7.9283     7.5323    -1.4681 H       
  56 H56           -7.3195     7.3197    -3.8465 H       
  57 H57           -5.0695     6.5422    -4.4733 H       
  58 H58           -3.4279     5.9774    -2.7377 H       
  59 H59            0.6340    -2.3008    -0.5173 H       
  60 H60            3.6380    -1.8283    -0.2539 H       
  61 H61            2.0411    -4.2277    -1.2587 H       
  62 H62            3.8145    -4.0769    -1.2840 H       
  63 H63            3.0606    -5.3844     0.6834 H       
  64 H64            3.8314    -3.8608     1.1862 H       
  65 H65            1.7361    -4.2579     2.4513 H       
  66 H66            2.4243    -1.9340     1.9275 H       
  67 H67            0.6509    -2.0848     1.9528 H       
  68 H68            0.5713    -5.5961     0.7190 H       
  69 H69           -0.4312    -4.2234     1.2471 H       
  70 H70            0.4335    -4.1481    -0.3069 H       
  71 H71            2.5184    -0.6848    -2.1961 H       
  72 H72            4.2762    -3.0985    -2.8239 H       
  73 H73            3.9706    -1.7500    -3.9447 H       
  74 H74            4.8331    -1.4580    -2.4153 H       
  75 H75            0.6354    -2.2788    -2.4446 H       
  76 H76            1.5393    -2.1152    -3.9692 H       
  77 H77            1.7772    -3.5500    -2.9431 H       
@<TRIPOS>BOND
   1    1    2 1
   2    1    3 2
   3    1    4 am
   4    2   29 1
   5    2   40 1
   6    2   41 1
   7    4    5 1
   8    4   42 1
   9    5    6 1
  10    5   43 1
  11    5   44 1
  12    6    7 1
  13    6   45 1
  14    6   46 1
  15    7   20 1
  16    7   47 1
  17    7   48 1
  18    8    9 1
  19    8   12 1
  20    9   10 1
  21    9   49 1
  22    9   50 1
  23   10   11 1
  24   11   12 ar
  25   11   13 ar
  26   12   16 ar
  27   13   14 ar
  28   13   51 1
  29   14   15 ar
  30   14   17 1
  31   15   16 ar
  32   15   18 1
  33   16   52 1
  34   17   19 1
  35   18   19 1
  36   18   21 1
  37   18   22 1
  38   19   53 1
  39   19   54 1
  40   20   21 am
  41   20   27 1
  42   21   28 2
  43   22   23 ar
  44   22   27 ar
  45   23   24 ar
  46   23   55 1
  47   24   25 ar
  48   24   56 1
  49   25   26 ar
  50   25   57 1
  51   26   27 ar
  52   26   58 1
  53   29   30 1
  54   30   31 1
  55   30   35 1
  56   30   59 1
  57   31   32 1
  58   31   37 1
  59   31   60 1
  60   32   33 1
  61   32   61 1
  62   32   62 1
  63   33   34 1
  64   33   63 1
  65   33   64 1
  66   34   35 1
  67   34   36 1
  68   34   65 1
  69   35   66 1
  70   35   67 1
  71   36   68 1
  72   36   69 1
  73   36   70 1
  74   37   38 1
  75   37   39 1
  76   37   71 1
  77   38   72 1
  78   38   73 1
  79   38   74 1
  80   39   75 1
  81   39   76 1
  82   39   77 1

#	End of record

