#	Name: ASD01140619
#	Creating user name:	WinNT
#	Creation time:	15. 06. 2019 19:01

#	Modifying user name:	WinNT
#	Modification time:	15. 06. 2019 19:01

#	Program:	/corina/corina34_cracker 3.40 0067  02.08.2006

@<TRIPOS>MOLECULE
ASD01140619
  23   24    0    0    0
SMALL
NO_CHARGES


@<TRIPOS>ATOM
   1 N1            -0.0160     1.3293     0.0094 N.am    
   2 C2             0.0021    -0.0041     0.0020 C.2     
   3 C3             1.3711    -0.6577    -0.0299 C.3     
   4 S4             2.4768     0.7299     0.4578 S.3     
   5 C5             1.2642     2.0171     0.0008 C.3     
   6 S6             1.6593     2.6927    -1.6495 S.3     
   7 N7             1.3354     3.1647     0.8896 N.am    
   8 C8             1.9431     4.2601     0.4322 C.2     
   9 C9             2.5101     4.1774    -0.9729 C.3     
  10 O10           -1.0191    -0.6581     0.0203 O.2     
  11 O11            2.0370     5.2668     1.1020 O.2     
  12 C12            1.4525    -1.8011     0.9835 C.3     
  13 C13            2.7913    -2.4828     0.8653 C.2     
  14 O14            3.5976    -2.0941     0.0537 O.2     
  15 O15            3.0880    -3.5219     1.6615 O.3     
  16 H16           -0.8519     1.8215     0.0160 H       
  17 H17            1.6097    -1.0097    -1.0336 H       
  18 H18            0.9557     3.1349     1.7817 H       
  19 H19            3.5895     4.0281    -0.9475 H       
  20 H20            2.2537     5.0672    -1.5477 H       
  21 H21            1.3356    -1.4024     1.9912 H       
  22 H22            0.6591    -2.5212     0.7834 H       
  23 H23            3.9589    -3.9267     1.5488 H       
@<TRIPOS>BOND
   1    1    2 am
   2    1    5 1
   3    1   16 1
   4    2    3 1
   5    2   10 2
   6    3    4 1
   7    3   12 1
   8    3   17 1
   9    4    5 1
  10    5    7 1
  11    5    6 1
  12    6    9 1
  13    7    8 am
  14    7   18 1
  15    8    9 1
  16    8   11 2
  17    9   19 1
  18    9   20 1
  19   12   13 1
  20   12   21 1
  21   12   22 1
  22   13   14 2
  23   13   15 1
  24   15   23 1

#	End of record

