#	Name: ASD02198155
#	Creating user name:	WinNT
#	Creation time:	15. 06. 2019 20:18

#	Modifying user name:	WinNT
#	Modification time:	15. 06. 2019 20:18

#	Program:	/corina/corina34_cracker 3.40 0067  02.08.2006

@<TRIPOS>MOLECULE
ASD02198155
  49   52    0    0    0
SMALL
NO_CHARGES


@<TRIPOS>ATOM
   1 C1            -0.1976     1.3932    -0.6200 C.2     
   2 C2            -0.1788     0.0148    -0.6652 C.2     
   3 C3            -1.1739    -0.8002    -0.0358 C.1     
   4 S4             1.1280     2.0482    -1.4687 S.3     
   5 C5             1.7264     0.4534    -1.8969 C.2     
   6 C6             0.8947    -0.5131    -1.3777 C.2     
   7 C7             2.8826     0.2014    -2.6568 C.2     
   8 C8             3.6987     1.3310    -3.1612 C.ar    
   9 O9             3.2137    -0.9464    -2.9006 O.2     
  10 N10            1.1045    -1.8719    -1.5469 N.pl3   
  11 N11           -1.1605     2.1397     0.0194 N.pl3   
  12 N12           -1.9634    -1.4468     0.4635 N.1     
  13 C13            4.8430     1.0748    -3.9135 C.ar    
  14 C14            5.5958     2.1412    -4.3782 C.ar    
  15 C15            5.1781     3.4279    -4.0745 C.ar    
  16 C16            4.0297     3.6092    -3.3214 C.ar    
  17 N17            3.3303     2.5787    -2.8971 N.ar    
  18 C18           -1.0185     3.5208     0.1183 C.ar    
  19 C19           -2.1374     4.3430     0.0185 C.ar    
  20 C20           -2.0003     5.7090     0.1159 C.ar    
  21 C21           -0.7359     6.2705     0.3158 C.ar    
  22 C22            0.3856     5.4422     0.4160 C.ar    
  23 C23            0.2413     4.0767     0.3226 C.ar    
  24 C24           -0.5854     7.7346     0.4202 C.2     
  25 O25           -1.5617     8.4540     0.3324 O.2     
  26 N26            0.6344     8.2746     0.6128 N.am    
  27 C27            0.7839     9.7282     0.7165 C.3     
  28 C28            0.5655    10.1797     2.1442 C.2     
  29 C29            2.2350    10.1444     0.3879 C.3     
  30 C30            2.5538    11.1394     1.5269 C.3     
  31 O31            1.6931    10.7208     2.6272 O.3     
  32 O32           -0.4698    10.0691     2.7572 O.2     
  33 H33            1.8701    -2.1851    -2.0536 H       
  34 H34            0.4858    -2.5102    -1.1588 H       
  35 H35           -1.9383     1.7035     0.4011 H       
  36 H36            5.1394     0.0593    -4.1310 H       
  37 H37            6.4879     1.9740    -4.9634 H       
  38 H38            5.7428     4.2806    -4.4214 H       
  39 H39            3.7017     4.6101    -3.0828 H       
  40 H40           -3.1140     3.9085    -0.1359 H       
  41 H41           -2.8687     6.3464     0.0377 H       
  42 H42            1.3638     5.8731     0.5704 H       
  43 H43            1.1073     3.4362     0.4003 H       
  44 H44            1.4133     7.7007     0.6828 H       
  45 H45            0.0832    10.2295     0.0487 H       
  46 H46            2.9035     9.2842     0.4252 H       
  47 H47            2.2873    10.6363    -0.5834 H       
  48 H48            3.6026    11.0653     1.8146 H       
  49 H49            2.3130    12.1576     1.2214 H       
@<TRIPOS>BOND
   1    1    2 2
   2    1    4 1
   3    1   11 1
   4    2    3 1
   5    2    6 1
   6    3   12 3
   7    4    5 1
   8    5    6 2
   9    5    7 1
  10    6   10 1
  11    7    8 1
  12    7    9 2
  13    8   13 ar
  14    8   17 ar
  15   10   33 1
  16   10   34 1
  17   11   18 1
  18   11   35 1
  19   13   14 ar
  20   13   36 1
  21   14   15 ar
  22   14   37 1
  23   15   16 ar
  24   15   38 1
  25   16   17 ar
  26   16   39 1
  27   18   19 ar
  28   18   23 ar
  29   19   20 ar
  30   19   40 1
  31   20   21 ar
  32   20   41 1
  33   21   22 ar
  34   21   24 1
  35   22   23 ar
  36   22   42 1
  37   23   43 1
  38   24   25 2
  39   24   26 am
  40   26   27 1
  41   26   44 1
  42   27   28 1
  43   27   29 1
  44   27   45 1
  45   28   32 2
  46   28   31 1
  47   29   30 1
  48   29   46 1
  49   29   47 1
  50   30   31 1
  51   30   48 1
  52   30   49 1

#	End of record

