#	Name: ASD01001269
#	Creating user name:	WinNT
#	Creation time:	15. 06. 2019 18:55

#	Modifying user name:	WinNT
#	Modification time:	15. 06. 2019 18:55

#	Program:	/corina/corina34_cracker 3.40 0067  02.08.2006

@<TRIPOS>MOLECULE
ASD01001269
  48   50    0    0    0
SMALL
NO_CHARGES


@<TRIPOS>ATOM
   1 N1            -0.0158     1.3108     0.0092 N.2     
   2 C2             0.0021    -0.0041     0.0020 C.2     
   3 N3             1.2769    -0.4162    -0.0124 N.2     
   4 C4             2.0759     0.6179    -0.0144 C.2     
   5 N5             1.3236     1.7329    -0.0013 N.pl3   
   6 C6            -1.1917    -0.8853     0.0094 C.ar    
   7 C7            -2.4716    -0.3302     0.0249 C.ar    
   8 C8            -3.5806    -1.1560     0.0318 C.ar    
   9 C9            -3.4228    -2.5294     0.0239 C.ar    
  10 C10           -2.1540    -3.0860     0.0085 C.ar    
  11 C11           -1.0387    -2.2699    -0.0048 C.ar    
  12 F12           -2.6271     1.0118     0.0336 F       
  13 F13           -2.0070    -4.4290     0.0012 F       
  14 C14            1.8066     3.1160     0.0015 C.3     
  15 C15            1.9587     3.5979    -1.4182 C.ar    
  16 C16            0.8983     4.2135    -2.0565 C.ar    
  17 C17            1.0378     4.6555    -3.3588 C.ar    
  18 C18            2.2378     4.4822    -4.0227 C.ar    
  19 C19            3.2985     3.8674    -3.3842 C.ar    
  20 C20            3.1604     3.4293    -2.0804 C.ar    
  21 C21            3.5821     0.5695    -0.0283 C.3     
  22 C22            4.0924     0.1724     1.3583 C.3     
  23 C23            3.5412    -1.2058     1.7292 C.3     
  24 C24            5.6215     0.1233     1.3442 C.3     
  25 C25            3.6247     1.2027     2.3882 C.3     
  26 N26            4.0311    -0.4197    -1.0171 N.3     
  27 H27           -4.5718    -0.7274     0.0438 H       
  28 H28           -4.2917    -3.1708     0.0300 H       
  29 H29           -0.0502    -2.7048    -0.0168 H       
  30 H30            1.0912     3.7496     0.5256 H       
  31 H31            2.7715     3.1628     0.5064 H       
  32 H32           -0.0393     4.3489    -1.5378 H       
  33 H33            0.2091     5.1359    -3.8577 H       
  34 H34            2.3465     4.8269    -5.0405 H       
  35 H35            4.2359     3.7317    -3.9030 H       
  36 H36            3.9891     2.9489    -1.5815 H       
  37 H37            3.9747     1.5514    -0.2925 H       
  38 H38            3.8744    -1.9399     0.9955 H       
  39 H39            3.9048    -1.4887     2.7171 H       
  40 H40            2.4518    -1.1708     1.7393 H       
  41 H41            6.0142     1.1051     1.0800 H       
  42 H42            5.9851    -0.1596     2.3321 H       
  43 H43            5.9547    -0.6108     0.6105 H       
  44 H44            2.5353     1.2377     2.3982 H       
  45 H45            3.9883     0.9198     3.3761 H       
  46 H46            4.0174     2.1846     2.1240 H       
  47 H47            3.6799    -1.3390    -0.7942 H       
  48 H48            3.7617    -0.1463    -1.9503 H       
@<TRIPOS>BOND
   1    1    2 2
   2    1    5 1
   3    2    3 1
   4    2    6 1
   5    3    4 2
   6    4    5 1
   7    4   21 1
   8    5   14 1
   9    6    7 ar
  10    6   11 ar
  11    7    8 ar
  12    7   12 1
  13    8    9 ar
  14    8   27 1
  15    9   10 ar
  16    9   28 1
  17   10   11 ar
  18   10   13 1
  19   11   29 1
  20   14   15 1
  21   14   30 1
  22   14   31 1
  23   15   16 ar
  24   15   20 ar
  25   16   17 ar
  26   16   32 1
  27   17   18 ar
  28   17   33 1
  29   18   19 ar
  30   18   34 1
  31   19   20 ar
  32   19   35 1
  33   20   36 1
  34   21   22 1
  35   21   26 1
  36   21   37 1
  37   22   23 1
  38   22   24 1
  39   22   25 1
  40   23   38 1
  41   23   39 1
  42   23   40 1
  43   24   41 1
  44   24   42 1
  45   24   43 1
  46   25   44 1
  47   25   45 1
  48   25   46 1
  49   26   47 1
  50   26   48 1

#	End of record

