#	Name: ASD03730183
#	Creating user name:	WinNT
#	Creation time:	15. 06. 2019 20:44

#	Modifying user name:	WinNT
#	Modification time:	15. 06. 2019 20:44

#	Program:	/corina/corina34_cracker 3.40 0067  02.08.2006

@<TRIPOS>MOLECULE
ASD03730183
  56   60    0    0    0
SMALL
NO_CHARGES


@<TRIPOS>ATOM
   1 O1            -0.1471     1.5797     0.0378 O.3     
   2 C2            -0.2125     0.1483     0.1826 C.3     
   3 C3             1.1612    -0.3029    -0.3325 C.3     
   4 C4             2.0223     0.9149    -0.1295 C.ar    
   5 C5             1.1540     1.9814     0.0927 C.ar    
   6 C6             1.6852     3.2449     0.3263 C.ar    
   7 C7             3.0583     3.4367     0.3282 C.ar    
   8 C8             3.9123     2.3653     0.0975 C.ar    
   9 C9             3.3871     1.1075    -0.1300 C.ar    
  10 N10            1.8809    -2.4666    -0.4901 N.am    
  11 C11            1.6755    -1.4954     0.4216 C.2     
  12 C12            1.1083    -0.7329    -1.7683 C.ar    
  13 C13            0.7319    -0.1075    -2.9360 C.ar    
  14 C14            0.7964    -0.7880    -4.1388 C.ar    
  15 C15            1.2396    -2.0978    -4.1658 C.ar    
  16 C16            1.6178    -2.7288    -2.9992 C.ar    
  17 C17            1.5573    -2.0510    -1.7839 C.ar    
  18 O18            1.8686    -1.5698     1.6167 O.2     
  19 C19            2.3849    -3.8026    -0.1624 C.3     
  20 C20            1.2076    -4.7317     0.1404 C.3     
  21 C21            1.7339    -6.1269     0.4826 C.3     
  22 C22            0.5566    -7.0560     0.7854 C.3     
  23 C23            1.0829    -8.4513     1.1277 C.3     
  24 N24            3.5841     4.7097     0.5620 N.pl3   
  25 C25            4.8318     4.8483     1.1753 C.ar    
  26 C26            5.6359     5.9416     0.8783 C.ar    
  27 C27            6.8684     6.0757     1.4867 C.ar    
  28 C28            7.3024     5.1233     2.3906 C.ar    
  29 C29            6.5045     4.0338     2.6885 C.ar    
  30 C30            5.2687     3.8962     2.0878 C.ar    
  31 H31           -0.3436    -0.1291     1.2285 H       
  32 H32           -1.0114    -0.2666    -0.4319 H       
  33 H33            1.0254     4.0806     0.5067 H       
  34 H34            4.9820     2.5147     0.0963 H       
  35 H35            4.0484     0.2727    -0.3094 H       
  36 H36            0.3857     0.9152    -2.9128 H       
  37 H37            0.5016    -0.2974    -5.0547 H       
  38 H38            1.2893    -2.6292    -5.1048 H       
  39 H39            1.9622    -3.7520    -3.0280 H       
  40 H40            2.9496    -4.1954    -1.0080 H       
  41 H41            3.0339    -3.7419     0.7112 H       
  42 H42            0.6429    -4.3389     0.9859 H       
  43 H43            0.5586    -4.7923    -0.7332 H       
  44 H44            2.2986    -6.5197    -0.3629 H       
  45 H45            2.3829    -6.0662     1.3562 H       
  46 H46           -0.0081    -6.6632     1.6310 H       
  47 H47           -0.0924    -7.1167    -0.0882 H       
  48 H48            0.2442    -9.1131     1.3434 H       
  49 H49            1.6476    -8.8441     0.2821 H       
  50 H50            1.7319    -8.3906     2.0013 H       
  51 H51            3.0830     5.4973     0.2986 H       
  52 H52            5.2978     6.6855     0.1722 H       
  53 H53            7.4942     6.9252     1.2560 H       
  54 H54            8.2669     5.2305     2.8647 H       
  55 H55            6.8466     3.2917     3.3947 H       
  56 H56            4.6443     3.0472     2.3240 H       
@<TRIPOS>BOND
   1    1    2 1
   2    1    5 1
   3    2    3 1
   4    2   31 1
   5    2   32 1
   6    3    4 1
   7    3   11 1
   8    3   12 1
   9    4    5 ar
  10    4    9 ar
  11    5    6 ar
  12    6    7 ar
  13    6   33 1
  14    7    8 ar
  15    7   24 1
  16    8    9 ar
  17    8   34 1
  18    9   35 1
  19   10   11 am
  20   10   17 1
  21   10   19 1
  22   11   18 2
  23   12   13 ar
  24   12   17 ar
  25   13   14 ar
  26   13   36 1
  27   14   15 ar
  28   14   37 1
  29   15   16 ar
  30   15   38 1
  31   16   17 ar
  32   16   39 1
  33   19   20 1
  34   19   40 1
  35   19   41 1
  36   20   21 1
  37   20   42 1
  38   20   43 1
  39   21   22 1
  40   21   44 1
  41   21   45 1
  42   22   23 1
  43   22   46 1
  44   22   47 1
  45   23   48 1
  46   23   49 1
  47   23   50 1
  48   24   25 1
  49   24   51 1
  50   25   26 ar
  51   25   30 ar
  52   26   27 ar
  53   26   52 1
  54   27   28 ar
  55   27   53 1
  56   28   29 ar
  57   28   54 1
  58   29   30 ar
  59   29   55 1
  60   30   56 1

#	End of record

