#	Name: ASD02039419
#	Creating user name:	WinNT
#	Creation time:	15. 06. 2019 20:18

#	Modifying user name:	WinNT
#	Modification time:	15. 06. 2019 20:18

#	Program:	/corina/corina34_cracker 3.40 0067  02.08.2006

@<TRIPOS>MOLECULE
ASD02039419
  49   52    0    0    0
SMALL
NO_CHARGES


@<TRIPOS>ATOM
   1 C1             0.0158     1.0142    -0.3115 C.2     
   2 C2             0.2269    -0.3003    -0.4305 C.2     
   3 C3             1.1414     1.9869    -0.0708 C.3     
   4 N4             1.5891     2.5420    -1.3505 N.am    
   5 C5             0.9428     3.7381    -1.8963 C.3     
   6 C6             2.5956     1.9524    -2.0256 C.2     
   7 C7             3.3053     0.8042    -1.4354 C.2     
   8 C8             4.4129     0.1922    -1.9449 C.2     
   9 N9             2.9796     0.1661    -0.2822 N.2     
  10 C10            3.8311    -0.7973    -0.0793 C.2     
  11 N11            4.7351    -0.8096    -1.0933 N.pl3   
  12 O12            2.9180     2.3682    -3.1222 O.2     
  13 C13            5.8569    -1.7405    -1.2394 C.3     
  14 C14            1.9298     4.8596    -2.2609 C.3     
  15 C15            1.0674     5.1050    -3.5103 C.3     
  16 C16            0.6259     3.6362    -3.3977 C.3     
  17 S17           -1.3272    -1.0862    -0.7017 S.3     
  18 C18           -2.1277     0.4814    -0.6251 C.2     
  19 N19           -1.2331     1.4061    -0.4229 N.2     
  20 C20           -3.5805     0.7108    -0.7729 C.ar    
  21 C21           -4.4403    -0.3667    -0.9930 C.ar    
  22 C22           -5.7945    -0.1486    -1.1298 C.ar    
  23 C23           -6.3036     1.1409    -1.0495 C.ar    
  24 C24           -5.4514     2.2154    -0.8307 C.ar    
  25 C25           -4.0968     2.0050    -0.6871 C.ar    
  26 O26           -7.6387     1.3519    -1.1858 O.3     
  27 C27           -8.0949     2.7029    -1.0924 C.3     
  28 F28           -7.4891     3.4699    -2.0934 F       
  29 F29           -9.4841     2.7382    -1.2544 F       
  30 F30           -7.7582     3.2232     0.1618 F       
  31 H31            1.1848    -0.7955    -0.3711 H       
  32 H32            0.7925     2.7940     0.5733 H       
  33 H33            1.9712     1.4702     0.4113 H       
  34 H34            0.1005     4.0768    -1.2929 H       
  35 H35            4.9330     0.4562    -2.8539 H       
  36 H36            3.8222    -1.4755     0.7612 H       
  37 H37            5.5326    -2.6143    -1.8045 H       
  38 H38            6.6718    -1.2471    -1.7691 H       
  39 H39            6.2008    -2.0526    -0.2533 H       
  40 H40            1.9249     5.6915    -1.5567 H       
  41 H41            2.9339     4.5010    -2.4871 H       
  42 H42            0.2584     5.8176    -3.3494 H       
  43 H43            1.6488     5.3186    -4.4071 H       
  44 H44            1.2736     2.9432    -3.9346 H       
  45 H45           -0.4316     3.4806    -3.6111 H       
  46 H46           -4.0450    -1.3697    -1.0562 H       
  47 H47           -6.4603    -0.9817    -1.3000 H       
  48 H48           -5.8512     3.2168    -0.7689 H       
  49 H49           -3.4347     2.8411    -0.5170 H       
@<TRIPOS>BOND
   1    1    2 2
   2    1    3 1
   3    1   19 1
   4    2   17 1
   5    2   31 1
   6    3    4 1
   7    3   32 1
   8    3   33 1
   9    4    5 1
  10    4    6 am
  11    5   14 1
  12    5   16 1
  13    5   34 1
  14    6    7 1
  15    6   12 2
  16    7    8 2
  17    7    9 1
  18    8   11 1
  19    8   35 1
  20    9   10 2
  21   10   11 1
  22   10   36 1
  23   11   13 1
  24   13   37 1
  25   13   38 1
  26   13   39 1
  27   14   15 1
  28   14   40 1
  29   14   41 1
  30   15   16 1
  31   15   42 1
  32   15   43 1
  33   16   44 1
  34   16   45 1
  35   17   18 1
  36   18   19 2
  37   18   20 1
  38   20   21 ar
  39   20   25 ar
  40   21   22 ar
  41   21   46 1
  42   22   23 ar
  43   22   47 1
  44   23   24 ar
  45   23   26 1
  46   24   25 ar
  47   24   48 1
  48   25   49 1
  49   26   27 1
  50   27   28 1
  51   27   29 1
  52   27   30 1

#	End of record

