#	Name: ASD07301363
#	Creating user name:	WinNT
#	Creation time:	15. 06. 2019 21:11

#	Modifying user name:	WinNT
#	Modification time:	15. 06. 2019 21:11

#	Program:	/corina/corina34_cracker 3.40 0067  02.08.2006

@<TRIPOS>MOLECULE
ASD07301363
  36   37    0    0    0
SMALL
NO_CHARGES


@<TRIPOS>ATOM
   1 C1             0.0020    -0.0040    -0.0016 C.1     
   2 C2            -0.0174     1.4278     0.0071 C.ar    
   3 C3            -1.2345     2.1113     0.0730 C.ar    
   4 C4            -1.2494     3.4885     0.0818 C.ar    
   5 C5            -0.0549     4.1990     0.0246 C.ar    
   6 C6             1.1583     3.5219    -0.0410 C.ar    
   7 C7             1.1809     2.1447    -0.0443 C.ar    
   8 N8             0.0174    -1.1399    -0.0086 N.1     
   9 C9             1.1106     7.5327     0.1385 C.2     
  10 C10           -0.1373     8.3075     0.0464 C.2     
  11 C11           -1.3487     7.5758    -0.0532 C.2     
  12 C12           -1.2720     6.2236    -0.0565 C.2     
  13 N13           -0.0739     5.5955     0.0328 N.pl3   
  14 N14            1.0425     6.2188     0.1242 N.2     
  15 O15           -0.1303     9.5286     0.0558 O.2     
  16 C16            2.4167     8.2180     0.2392 C.2     
  17 C17            3.6063     7.4614     0.3269 C.2     
  18 C18            4.8009     8.0881     0.4189 C.2     
  19 O19            2.4670     9.4353     0.2464 O.2     
  20 N20            5.9506     7.3569     0.5037 N.pl3   
  21 C21            5.8901     5.8932     0.4950 C.3     
  22 C22            7.2449     8.0359     0.6035 C.3     
  23 H23           -2.1623     1.5603     0.1167 H       
  24 H24           -2.1896     4.0174     0.1327 H       
  25 H25            2.0839     4.0766    -0.0856 H       
  26 H26            2.1235     1.6196    -0.0909 H       
  27 H27           -2.3009     8.0805    -0.1237 H       
  28 H28           -2.1766     5.6384    -0.1311 H       
  29 H29            3.5617     6.3823     0.3205 H       
  30 H30            4.8455     9.1672     0.4254 H       
  31 H31            5.9525     5.5330    -0.5319 H       
  32 H32            6.7231     5.4916     1.0721 H       
  33 H33            4.9497     5.5657     0.9383 H       
  34 H34            7.4885     8.2014     1.6529 H       
  35 H35            8.0161     7.4172     0.1447 H       
  36 H36            7.1931     8.9944     0.0870 H       
@<TRIPOS>BOND
   1    1    2 1
   2    1    8 3
   3    2    3 ar
   4    2    7 ar
   5    3    4 ar
   6    3   23 1
   7    4    5 ar
   8    4   24 1
   9    5    6 ar
  10    5   13 1
  11    6    7 ar
  12    6   25 1
  13    7   26 1
  14    9   10 1
  15    9   14 2
  16    9   16 1
  17   10   11 1
  18   10   15 2
  19   11   12 2
  20   11   27 1
  21   12   13 1
  22   12   28 1
  23   13   14 1
  24   16   17 1
  25   16   19 2
  26   17   18 2
  27   17   29 1
  28   18   20 1
  29   18   30 1
  30   20   21 1
  31   20   22 1
  32   21   31 1
  33   21   32 1
  34   21   33 1
  35   22   34 1
  36   22   35 1
  37   22   36 1

#	End of record

