#	Name: ASD01028317
#	Creating user name:	WinNT
#	Creation time:	15. 06. 2019 18:56

#	Modifying user name:	WinNT
#	Modification time:	15. 06. 2019 18:56

#	Program:	/corina/corina34_cracker 3.40 0067  02.08.2006

@<TRIPOS>MOLECULE
ASD01028317
  53   57    0    0    0
SMALL
NO_CHARGES


@<TRIPOS>ATOM
   1 C1            -0.0074     1.3547    -0.2934 C.ar    
   2 C2             0.0014    -0.0039    -0.0109 C.ar    
   3 C3             1.1977     2.0471    -0.3151 C.ar    
   4 C4             2.3714     1.3428    -0.0505 C.ar    
   5 C5             2.3001    -0.0069     0.2221 C.ar    
   6 N6             1.1395    -0.6354     0.2355 N.ar    
   7 O7             1.2310     3.3764    -0.5878 O.3     
   8 C8             2.5136     4.0066    -0.5887 C.3     
   9 C9             2.3538     5.4705    -0.9089 C.2     
  10 N10            2.1616     6.4656    -0.0156 N.pl3   
  11 C11            2.0720     7.6236    -0.7513 C.2     
  12 N12            2.2108     7.2815    -2.0218 N.2     
  13 N13            2.3818     6.0082    -2.1029 N.2     
  14 N14            2.0506     6.5098     1.3756 N.2     
  15 C15            1.8601     7.6546     1.9932 C.2     
  16 C16            1.7635     8.8600     1.2661 C.2     
  17 C17            1.8684     8.8490    -0.0890 C.2     
  18 C18            1.7449     7.6794     3.4721 C.ar    
  19 C19            1.8384     6.4952     4.2008 C.ar    
  20 C20            1.7310     6.5242     5.5764 C.ar    
  21 C21            1.5310     7.7257     6.2320 C.ar    
  22 C22            1.4375     8.9042     5.5137 C.ar    
  23 C23            1.5487     8.8876     4.1382 C.ar    
  24 N24           -1.1997    -0.7112     0.0143 N.am    
  25 C25           -2.3689    -0.0501     0.1261 C.2     
  26 O26           -2.3725     1.1514     0.3115 O.2     
  27 N27           -3.5341    -0.7211     0.0325 N.am    
  28 C28           -4.8193    -0.0430     0.2643 C.3     
  29 C29           -5.7496    -0.3546    -0.9136 C.3     
  30 O30           -5.8045    -1.7698    -1.1085 O.3     
  31 C31           -4.5503    -2.3619    -1.4551 C.3     
  32 C32           -3.5588    -2.1518    -0.3105 C.3     
  33 H33           -0.9366     1.8657    -0.4978 H       
  34 H34            3.3256     1.8486    -0.0592 H       
  35 H35            3.2063    -0.5574     0.4275 H       
  36 H36            2.9727     3.8976     0.3939 H       
  37 H37            3.1483     3.5375    -1.3404 H       
  38 H38            1.6062     9.7929     1.7871 H       
  39 H39            1.7951     9.7686    -0.6506 H       
  40 H40            1.9941     5.5565     3.6900 H       
  41 H41            1.8028     5.6070     6.1422 H       
  42 H42            1.4471     7.7438     7.3085 H       
  43 H43            1.2810     9.8395     6.0306 H       
  44 H44            1.4756     9.8083     3.5783 H       
  45 H45           -1.1940    -1.6792    -0.0486 H       
  46 H46           -5.2647    -0.4070     1.1901 H       
  47 H47           -4.6598     1.0332     0.3314 H       
  48 H48           -6.7494     0.0222    -0.6975 H       
  49 H49           -5.3671     0.1226    -1.8158 H       
  50 H50           -4.6871    -3.4293    -1.6286 H       
  51 H51           -4.1634    -1.8920    -2.3593 H       
  52 H52           -2.5650    -2.4735    -0.6220 H       
  53 H53           -3.8755    -2.7269     0.5596 H       
@<TRIPOS>BOND
   1    1    2 ar
   2    1    3 ar
   3    1   33 1
   4    2   24 1
   5    2    6 ar
   6    3    4 ar
   7    3    7 1
   8    4    5 ar
   9    4   34 1
  10    5    6 ar
  11    5   35 1
  12    7    8 1
  13    8    9 1
  14    8   36 1
  15    8   37 1
  16    9   10 1
  17    9   13 2
  18   10   11 1
  19   10   14 1
  20   11   12 2
  21   11   17 1
  22   12   13 1
  23   14   15 2
  24   15   16 1
  25   15   18 1
  26   16   17 2
  27   16   38 1
  28   17   39 1
  29   18   19 ar
  30   18   23 ar
  31   19   20 ar
  32   19   40 1
  33   20   21 ar
  34   20   41 1
  35   21   22 ar
  36   21   42 1
  37   22   23 ar
  38   22   43 1
  39   23   44 1
  40   24   25 am
  41   24   45 1
  42   25   26 2
  43   25   27 am
  44   27   28 1
  45   27   32 1
  46   28   29 1
  47   28   46 1
  48   28   47 1
  49   29   30 1
  50   29   48 1
  51   29   49 1
  52   30   31 1
  53   31   32 1
  54   31   50 1
  55   31   51 1
  56   32   52 1
  57   32   53 1

#	End of record

