#	Name: ASD00843577
#	Creating user name:	WinNT
#	Creation time:	15. 06. 2019 18:47

#	Modifying user name:	WinNT
#	Modification time:	15. 06. 2019 18:47

#	Program:	/corina/corina34_cracker 3.40 0067  02.08.2006

@<TRIPOS>MOLECULE
ASD00843577
  82   87    0    0    0
SMALL
NO_CHARGES


@<TRIPOS>ATOM
   1 F1             5.5731    -2.3860    -2.0716 F       
   2 N2             0.7511     1.0433    -0.2760 N.ar    
   3 C3             0.9520    -0.2363    -0.5432 C.ar    
   4 C4             0.8601    -1.1919     0.4608 C.ar    
   5 C5             0.5548    -0.7882     1.7487 C.ar    
   6 C6             0.3512     0.5641     1.9879 C.ar    
   7 C7             0.4585     1.4586     0.9419 C.ar    
   8 C8             1.0893    -2.6489     0.1515 C.3     
   9 C9             0.7956    -3.5016     1.3672 C.2     
  10 C10            0.2239    -3.0868    -1.0318 C.3     
  11 C11           -1.2200    -2.7647    -0.7446 C.2     
  12 N12           -2.1821    -3.1606    -1.6014 N.am    
  13 O13           -1.5162    -2.1493     0.2577 O.2     
  14 C14           -3.5801    -2.7584    -1.3949 C.3     
  15 C15           -4.4585    -4.0134    -1.3892 C.3     
  16 C16           -4.2161    -4.8067    -2.6753 C.3     
  17 C17           -2.7506    -5.2432    -2.7388 C.3     
  18 C18           -1.8519    -3.9975    -2.7629 C.3     
  19 C19           -5.1172    -6.0431    -2.6890 C.3     
  20 C20           -6.5840    -5.6080    -2.6271 C.3     
  21 C21           -7.4816    -6.8451    -2.7026 C.3     
  22 N22           -7.2188    -7.5666    -3.9543 N.3     
  23 C23           -5.8285    -8.0355    -4.0151 C.3     
  24 C24           -4.8815    -6.8338    -3.9788 C.3     
  25 H25           -7.8644    -8.3330    -4.0723 H       
  26 O26           -0.2700    -3.5981     1.9385 O.2     
  27 N27            1.9359    -4.1318     1.6948 N.am    
  28 C28            2.5516    -2.9059    -0.1344 C.ar    
  29 C29            2.9866    -3.8049     0.8340 C.ar    
  30 C30            3.4101    -2.4321    -1.1018 C.ar    
  31 C31            4.7297    -2.8488    -1.1231 C.ar    
  32 C32            5.1848    -3.7523    -0.1573 C.ar    
  33 C33            4.3103    -4.2284     0.8191 C.ar    
  34 C34            1.7039    -6.7896     2.3705 C.ar    
  35 C35            2.7111    -7.5913     1.8667 C.ar    
  36 C36            0.4030    -7.2556     2.4079 C.ar    
  37 C37            0.1093    -8.5233     1.9415 C.ar    
  38 C38            1.1164    -9.3249     1.4374 C.ar    
  39 C39            2.4173    -8.8588     1.4000 C.ar    
  40 H40            0.8869   -10.3153     1.0730 H       
  41 H41            3.7274    -7.2272     1.8375 H       
  42 C42            6.5485    -4.1890    -0.1716 C.1     
  43 N43            7.6303    -4.5355    -0.1830 N.1     
  44 O44            1.2502    -0.6193    -1.8102 O.3     
  45 C45            1.2791     0.4038    -2.8074 C.3     
  46 C46            1.7315    -0.1959    -4.1403 C.3     
  47 F47            2.9729    -0.8191    -3.9739 F       
  48 F48            0.7909    -1.1377    -4.5711 F       
  49 S49            2.0795    -5.1764     2.9716 S.o2    
  50 O50            3.4556    -5.1905     3.3258 O.2     
  51 O51            1.0452    -4.8378     3.8853 O.2     
  52 H52            0.4763    -1.5086     2.5494 H       
  53 H53            0.1110     0.9125     2.9815 H       
  54 H54            0.3014     2.5117     1.1227 H       
  55 H55            0.5423    -2.5579    -1.9302 H       
  56 H56            0.3333    -4.1605    -1.1844 H       
  57 H57           -3.6745    -2.2419    -0.4397 H       
  58 H58           -3.8931    -2.0969    -2.2028 H       
  59 H59           -4.2051    -4.6309    -0.5275 H       
  60 H60           -5.5076    -3.7229    -1.3333 H       
  61 H61           -4.4461    -4.1804    -3.5372 H       
  62 H62           -2.5132    -5.8492    -1.8644 H       
  63 H63           -2.5841    -5.8281    -3.6434 H       
  64 H64           -2.0254    -3.4396    -3.6831 H       
  65 H65           -0.8062    -4.3002    -2.7083 H       
  66 H66           -4.8870    -6.6712    -1.8284 H       
  67 H67           -6.7681    -5.0813    -1.6908 H       
  68 H68           -6.8033    -4.9475    -3.4661 H       
  69 H69           -7.2715    -7.4985    -1.8558 H       
  70 H70           -8.5270    -6.5377    -2.6732 H       
  71 H71           -5.6261    -8.6833    -3.1622 H       
  72 H72           -5.6732    -8.5926    -4.9390 H       
  73 H73           -5.0741    -6.1927    -4.8390 H       
  74 H74           -3.8494    -7.1829    -4.0082 H       
  75 H75            3.0528    -1.7346    -1.8450 H       
  76 H76            4.6621    -4.9261     1.5647 H       
  77 H77           -0.3838    -6.6294     2.8018 H       
  78 H78           -0.9069    -8.8877     1.9714 H       
  79 H79            3.2042    -9.4852     1.0064 H       
  80 H80            0.2821     0.8295    -2.9203 H       
  81 H81            1.9760     1.1857    -2.5057 H       
  82 H82            1.8194     0.5962    -4.8839 H       
@<TRIPOS>BOND
   1    1   31 1
   2    2    3 ar
   3    2    7 ar
   4    3    4 ar
   5    3   44 1
   6    4    5 ar
   7    4    8 1
   8    5    6 ar
   9    5   52 1
  10    6    7 ar
  11    6   53 1
  12    7   54 1
  13    8    9 1
  14    8   10 1
  15    8   28 1
  16    9   26 2
  17    9   27 am
  18   10   11 1
  19   10   55 1
  20   10   56 1
  21   11   12 am
  22   11   13 2
  23   12   14 1
  24   12   18 1
  25   14   15 1
  26   14   57 1
  27   14   58 1
  28   15   16 1
  29   15   59 1
  30   15   60 1
  31   16   17 1
  32   16   19 1
  33   16   61 1
  34   17   18 1
  35   17   62 1
  36   17   63 1
  37   18   64 1
  38   18   65 1
  39   19   20 1
  40   19   24 1
  41   19   66 1
  42   20   21 1
  43   20   67 1
  44   20   68 1
  45   21   22 1
  46   21   69 1
  47   21   70 1
  48   22   23 1
  49   22   25 1
  50   23   24 1
  51   23   71 1
  52   23   72 1
  53   24   73 1
  54   24   74 1
  55   27   49 am
  56   27   29 1
  57   28   29 ar
  58   28   30 ar
  59   29   33 ar
  60   30   31 ar
  61   30   75 1
  62   31   32 ar
  63   32   33 ar
  64   32   42 1
  65   33   76 1
  66   34   35 ar
  67   34   36 ar
  68   34   49 1
  69   35   41 1
  70   35   39 ar
  71   36   37 ar
  72   36   77 1
  73   37   38 ar
  74   37   78 1
  75   38   39 ar
  76   38   40 1
  77   39   79 1
  78   42   43 3
  79   44   45 1
  80   45   46 1
  81   45   80 1
  82   45   81 1
  83   46   47 1
  84   46   48 1
  85   46   82 1
  86   49   50 2
  87   49   51 2

#	End of record

