#	Name: ASD02030168
#	Creating user name:	WinNT
#	Creation time:	15. 06. 2019 20:14

#	Modifying user name:	WinNT
#	Modification time:	15. 06. 2019 20:14

#	Program:	/corina/corina34_cracker 3.40 0067  02.08.2006

@<TRIPOS>MOLECULE
ASD02030168
  54   57    0    0    0
SMALL
NO_CHARGES


@<TRIPOS>ATOM
   1 N1            -0.1250     1.7166    -0.3079 N.am    
   2 C2            -0.1927     0.2513    -0.3988 C.3     
   3 C3            -0.9940    -0.2774     0.7973 C.3     
   4 N4            -2.2466     0.4846     0.8972 N.am    
   5 C5            -2.1790     1.9499     0.9880 C.3     
   6 C6            -1.3775     2.4782    -0.2024 C.3     
   7 C7             1.0645     2.3501    -0.3155 C.2     
   8 C8             2.3197     1.5677    -0.2729 C.2     
   9 N9             2.4367     0.2335    -0.3594 N.2     
  10 N10            3.5440     2.0462    -0.1482 N.2     
  11 N11            4.3592     1.0481    -0.1539 N.pl3   
  12 N12            3.6934    -0.0462    -0.2812 N.2     
  13 O13            1.1062     3.5641    -0.3573 O.2     
  14 C14           -3.4362    -0.1490     0.9048 C.2     
  15 C15           -3.4872    -1.6294     0.8774 C.ar    
  16 O16           -4.4669     0.4941     0.9341 O.2     
  17 C17           -1.0625     3.9606     0.0079 C.3     
  18 C18           -2.1884     2.2993    -1.4874 C.3     
  19 C19            5.7536     1.1399    -0.0423 C.ar    
  20 C20            6.5300    -0.0109    -0.0613 C.ar    
  21 C21            7.9040     0.0813     0.0488 C.ar    
  22 C22            8.5074     1.3181     0.1783 C.ar    
  23 C23            7.7365     2.4689     0.1976 C.ar    
  24 C24            6.3609     2.3822     0.0815 C.ar    
  25 F25            8.3287     3.6765     0.3247 F       
  26 N26           -2.3983    -2.3307     1.1724 N.ar    
  27 C27           -2.4013    -3.6502     1.1597 C.ar    
  28 C28           -3.5553    -4.3567     0.8337 C.ar    
  29 C29           -4.7107    -3.6601     0.5203 C.ar    
  30 C30           -4.6766    -2.2718     0.5486 C.ar    
  31 O31           -1.2660    -4.3261     1.4677 O.3     
  32 Cl32          -6.1710    -4.5034     0.1082 Cl      
  33 C33           -0.1143    -3.5453     1.7933 C.3     
  34 H34           -0.6882    -0.0352    -1.3264 H       
  35 H35            0.8150    -0.1635    -0.3762 H       
  36 H36           -1.2191    -1.3335     0.6487 H       
  37 H37           -0.4141    -0.1495     1.7114 H       
  38 H38           -3.1867     2.3647     0.9654 H       
  39 H39           -1.6835     2.2364     1.9157 H       
  40 H40           -0.3054     4.0645     0.7851 H       
  41 H41           -0.6892     4.3883    -0.9225 H       
  42 H42           -1.9687     4.4851     0.3110 H       
  43 H43           -3.1240     2.8526    -1.4067 H       
  44 H44           -1.6151     2.6765    -2.3343 H       
  45 H45           -2.4037     1.2413    -1.6368 H       
  46 H46            6.0599    -0.9780    -0.1616 H       
  47 H47            8.5075    -0.8142     0.0341 H       
  48 H48            9.5817     1.3874     0.2649 H       
  49 H49            5.7593     3.2790     0.0965 H       
  50 H50           -3.5497    -5.4367     0.8248 H       
  51 H51           -5.5599    -1.6982     0.3096 H       
  52 H52           -0.3303    -2.9242     2.6625 H       
  53 H53            0.7217    -4.2075     2.0186 H       
  54 H54            0.1443    -2.9088     0.9471 H       
@<TRIPOS>BOND
   1    1    2 1
   2    1    7 am
   3    1    6 1
   4    2    3 1
   5    2   34 1
   6    2   35 1
   7    3    4 1
   8    3   36 1
   9    3   37 1
  10    4    5 1
  11    4   14 am
  12    5    6 1
  13    5   38 1
  14    5   39 1
  15    6   17 1
  16    6   18 1
  17    7    8 1
  18    7   13 2
  19    8    9 1
  20    8   10 2
  21    9   12 2
  22   10   11 1
  23   11   12 1
  24   11   19 1
  25   14   15 1
  26   14   16 2
  27   15   26 ar
  28   15   30 ar
  29   17   40 1
  30   17   41 1
  31   17   42 1
  32   18   43 1
  33   18   44 1
  34   18   45 1
  35   19   20 ar
  36   19   24 ar
  37   20   21 ar
  38   20   46 1
  39   21   22 ar
  40   21   47 1
  41   22   23 ar
  42   22   48 1
  43   23   24 ar
  44   23   25 1
  45   24   49 1
  46   26   27 ar
  47   27   28 ar
  48   27   31 1
  49   28   29 ar
  50   28   50 1
  51   29   30 ar
  52   29   32 1
  53   30   51 1
  54   31   33 1
  55   33   52 1
  56   33   53 1
  57   33   54 1

#	End of record

