#	Name: ASD00310044
#	Creating user name:	WinNT
#	Creation time:	15. 06. 2019 18:33

#	Modifying user name:	WinNT
#	Modification time:	15. 06. 2019 18:33

#	Program:	/corina/corina34_cracker 3.40 0067  02.08.2006

@<TRIPOS>MOLECULE
ASD00310044
  26   27    0    0    0
SMALL
NO_CHARGES


@<TRIPOS>ATOM
   1 N1            -0.0169     1.3966     0.0097 N.pl3   
   2 N2             0.0021    -0.0041     0.0020 N.2     
   3 C3             1.2503    -0.3959    -0.0120 C.2     
   4 C4             2.0651     0.7410    -0.0137 C.2     
   5 C5             1.2612     1.8294    -0.0002 C.2     
   6 C6            -1.2131     2.2423     0.0203 C.3     
   7 C7            -2.1134     1.8671    -1.1586 C.3     
   8 O8            -3.2802     2.6920    -1.1483 O.3     
   9 C9            -4.1902     2.4861    -2.1367 C.ar    
  10 C10           -5.3460     3.2515    -2.1871 C.ar    
  11 C11           -6.2697     3.0406    -3.1925 C.ar    
  12 C12           -6.0428     2.0665    -4.1483 C.ar    
  13 C13           -4.8908     1.3020    -4.0998 C.ar    
  14 C14           -3.9617     1.5140    -3.0997 C.ar    
  15 Br15          -7.3095     1.7790    -5.5226 Br      
  16 H16            1.5925    -1.4202    -0.0205 H       
  17 H17            3.1450     0.7487    -0.0236 H       
  18 H18            1.5846     2.8598     0.0023 H       
  19 H19           -1.7557     2.0927     0.9537 H       
  20 H20           -0.9193     3.2884    -0.0655 H       
  21 H21           -1.5708     2.0167    -2.0921 H       
  22 H22           -2.4072     0.8210    -1.0728 H       
  23 H23           -5.5238     4.0116    -1.4408 H       
  24 H24           -7.1697     3.6363    -3.2321 H       
  25 H25           -4.7156     0.5421    -4.8469 H       
  26 H26           -3.0604     0.9200    -3.0647 H       
@<TRIPOS>BOND
   1    1    2 1
   2    1    5 1
   3    1    6 1
   4    2    3 2
   5    3    4 1
   6    3   16 1
   7    4    5 2
   8    4   17 1
   9    5   18 1
  10    6    7 1
  11    6   19 1
  12    6   20 1
  13    7    8 1
  14    7   21 1
  15    7   22 1
  16    8    9 1
  17    9   10 ar
  18    9   14 ar
  19   10   11 ar
  20   10   23 1
  21   11   12 ar
  22   11   24 1
  23   12   13 ar
  24   12   15 1
  25   13   14 ar
  26   13   25 1
  27   14   26 1

#	End of record

