#	Name: ASD09116152
#	Creating user name:	WinNT
#	Creation time:	15. 06. 2019 21:20

#	Modifying user name:	WinNT
#	Modification time:	15. 06. 2019 21:20

#	Program:	/corina/corina34_cracker 3.40 0067  02.08.2006

@<TRIPOS>MOLECULE
ASD09116152
 100  108    0    0    0
SMALL
NO_CHARGES


@<TRIPOS>ATOM
   1 N1             0.0004     1.2519    -0.2229 N.2     
   2 C2            -0.0103    -0.1439    -0.6955 C.3     
   3 C3             1.2484     1.6345    -0.2315 C.2     
   4 N4             2.0890     0.6677    -0.6529 N.2     
   5 C5             1.4548    -0.4347    -0.9567 C.2     
   6 N6             1.6635     2.8944     0.1500 N.pl3   
   7 C7             3.0310     3.1909     0.2171 C.ar    
   8 C8             3.4762     4.4775    -0.0537 C.ar    
   9 C9             3.9406     2.1987     0.5601 C.ar    
  10 C10            5.2896     2.4915     0.6261 C.ar    
  11 C11            5.7352     3.7797     0.3491 C.ar    
  12 C12            4.8247     4.7709     0.0117 C.ar    
  13 N13            1.9953    -1.5970    -1.4116 N.pl3   
  14 C14           -0.5526    -1.0616     0.3697 C.ar    
  15 C15           -1.0734    -0.5179     1.5261 C.ar    
  16 N16           -0.5232    -2.3729     0.1712 N.ar    
  17 C17           -0.9829    -3.1926     1.0699 C.ar    
  18 C18           -1.5233    -2.7301     2.2756 C.ar    
  19 C19           -1.5794    -1.3676     2.5220 C.ar    
  20 C20           -1.0056    -4.7060     0.9591 C.3     
  21 C21           -0.2398    -5.2372     2.1884 C.3     
  22 C22           -0.8401    -4.6343     3.4603 C.3     
  23 N23           -1.9692    -3.7435     3.1277 N.3     
  24 C24           -3.0172    -4.5286     2.4462 C.3     
  25 C25           -2.4777    -5.1275     1.1455 C.3     
  26 C26           -2.1431    -0.8315     3.7844 C.ar    
  27 N27            7.1026     4.0777     0.4162 N.3     
  28 C28            7.6024     4.5509    -0.8810 C.3     
  29 C29            9.1209     4.7271    -0.8106 C.3     
  30 C30            9.4623     5.7373     0.2883 C.3     
  31 C31            8.8888     5.2444     1.6198 C.3     
  32 C32            7.3770     5.0533     1.4789 C.3     
  33 N33           10.9213     5.8668     0.4001 N.3     
  34 F34            6.1749     1.5272     0.9601 F       
  35 C35           11.5488     4.5607     0.6386 C.3     
  36 C36           -1.4285     0.1074     4.5265 C.ar    
  37 C37           -3.3921    -1.2602     4.2305 C.ar    
  38 C38           -3.9120    -0.7574     5.4059 C.ar    
  39 C39           -3.1962     0.1706     6.1407 C.ar    
  40 C40           -1.9583     0.6033     5.7004 C.ar    
  41 C41           11.2854     6.8299     1.4470 C.3     
  42 C42           12.8002     7.0480     1.4370 C.3     
  43 C43           13.5050     5.7106     1.6802 C.3     
  44 C44           13.0714     4.7110     0.6044 C.3     
  45 N45           14.9598     5.9032     1.6135 N.3     
  46 C46           15.4207     6.8188     2.6734 C.3     
  47 C47           16.4856     6.0650     3.4975 C.3     
  48 C48           16.9782     4.9705     2.5144 C.3     
  49 C49           15.6720     4.6160     1.7610 C.3     
  50 C50           -3.7695     0.7162     7.4232 C.3     
  51 F51           -3.3711    -0.0922     8.4932 F       
  52 F52           -3.3036     2.0198     7.6248 F       
  53 F53           -5.1661     0.7275     7.3420 F       
  54 H54           -0.5924    -0.2349    -1.6125 H       
  55 H55            1.0083     3.5745     0.3717 H       
  56 H56            2.7680     5.2496    -0.3160 H       
  57 H57            3.5936     1.1989     0.7754 H       
  58 H58            5.1706     5.7711    -0.2035 H       
  59 H59            2.9538    -1.6676    -1.5426 H       
  60 H60            1.4222    -2.3554    -1.6049 H       
  61 H61           -1.0911     0.5531     1.6640 H       
  62 H62           -0.5783    -5.0592     0.0206 H       
  63 H63           -0.3224    -6.3233     2.2268 H       
  64 H64            0.8102    -4.9546     2.1126 H       
  65 H65           -1.1939    -5.4374     4.1068 H       
  66 H66           -0.0735    -4.0631     3.9841 H       
  67 H67           -3.3479    -5.3334     3.1028 H       
  68 H68           -3.8629    -3.8794     2.2197 H       
  69 H69           -3.0692    -4.7640     0.3051 H       
  70 H70           -2.5415    -6.2147     1.1919 H       
  71 H71            7.3568     3.8215    -1.6528 H       
  72 H72            7.1368     5.5063    -1.1230 H       
  73 H73            9.5882     3.7692    -0.5822 H       
  74 H74            9.4896     5.0932    -1.7688 H       
  75 H75            9.0276     6.7057     0.0407 H       
  76 H76            9.3524     4.2946     1.8864 H       
  77 H77            9.0917     5.9802     2.3980 H       
  78 H78            6.9124     6.0063     1.2259 H       
  79 H79            6.9677     4.6887     2.4211 H       
  80 H80           11.2429     4.1836     1.6144 H       
  81 H81           11.2355     3.8605    -0.1357 H       
  82 H82           -0.4619     0.4459     4.1837 H       
  83 H83           -3.9521    -1.9841     3.6572 H       
  84 H84           -4.8796    -1.0889     5.7525 H       
  85 H85           -1.4036     1.3276     6.2784 H       
  86 H86           10.7808     7.7778     1.2599 H       
  87 H87           10.9808     6.4422     2.4191 H       
  88 H88           13.1037     7.4487     0.4698 H       
  89 H89           13.0719     7.7510     2.2244 H       
  90 H90           13.2319     5.3285     2.6638 H       
  91 H91           13.5369     3.7444     0.7969 H       
  92 H92           13.3792     5.0750    -0.3759 H       
  93 H93           15.8601     7.7110     2.2273 H       
  94 H94           14.5835     7.0957     3.3141 H       
  95 H95           17.3028     6.7317     3.7729 H       
  96 H96           16.0392     5.6143     4.3838 H       
  97 H97           17.7277     5.3687     1.8305 H       
  98 H98           17.3645     4.1060     3.0543 H       
  99 H99           15.0745     3.9165     2.3457 H       
 100 H100          15.9010     4.1947     0.7821 H       
@<TRIPOS>BOND
   1    1    2 1
   2    1    3 2
   3    2   14 1
   4    2    5 1
   5    2   54 1
   6    3    4 1
   7    3    6 1
   8    4    5 2
   9    5   13 1
  10    6    7 1
  11    6   55 1
  12    7    8 ar
  13    7    9 ar
  14    8   12 ar
  15    8   56 1
  16    9   10 ar
  17    9   57 1
  18   10   11 ar
  19   10   34 1
  20   11   12 ar
  21   11   27 1
  22   12   58 1
  23   13   59 1
  24   13   60 1
  25   14   15 ar
  26   14   16 ar
  27   15   19 ar
  28   15   61 1
  29   16   17 ar
  30   17   18 ar
  31   17   20 1
  32   18   19 ar
  33   18   23 1
  34   19   26 1
  35   20   21 1
  36   20   25 1
  37   20   62 1
  38   21   22 1
  39   21   63 1
  40   21   64 1
  41   22   23 1
  42   22   65 1
  43   22   66 1
  44   23   24 1
  45   24   25 1
  46   24   67 1
  47   24   68 1
  48   25   69 1
  49   25   70 1
  50   26   36 ar
  51   26   37 ar
  52   27   28 1
  53   27   32 1
  54   28   29 1
  55   28   71 1
  56   28   72 1
  57   29   30 1
  58   29   73 1
  59   29   74 1
  60   30   31 1
  61   30   33 1
  62   30   75 1
  63   31   32 1
  64   31   76 1
  65   31   77 1
  66   32   78 1
  67   32   79 1
  68   33   41 1
  69   33   35 1
  70   35   44 1
  71   35   80 1
  72   35   81 1
  73   36   40 ar
  74   36   82 1
  75   37   38 ar
  76   37   83 1
  77   38   39 ar
  78   38   84 1
  79   39   40 ar
  80   39   50 1
  81   40   85 1
  82   41   42 1
  83   41   86 1
  84   41   87 1
  85   42   43 1
  86   42   88 1
  87   42   89 1
  88   43   44 1
  89   43   45 1
  90   43   90 1
  91   44   91 1
  92   44   92 1
  93   45   46 1
  94   45   49 1
  95   46   47 1
  96   46   93 1
  97   46   94 1
  98   47   48 1
  99   47   95 1
 100   47   96 1
 101   48   49 1
 102   48   97 1
 103   48   98 1
 104   49   99 1
 105   49  100 1
 106   50   51 1
 107   50   52 1
 108   50   53 1

#	End of record

