#	Name: ASD01148139
#	Creating user name:	WinNT
#	Creation time:	15. 06. 2019 19:02

#	Modifying user name:	WinNT
#	Modification time:	15. 06. 2019 19:02

#	Program:	/corina/corina34_cracker 3.40 0067  02.08.2006

@<TRIPOS>MOLECULE
ASD01148139
  62   66    0    0    0
SMALL
NO_CHARGES


@<TRIPOS>ATOM
   1 C1            -0.0199     1.3412     0.0782 C.ar    
   2 C2            -0.0115    -0.0513     0.0235 C.ar    
   3 C3            -1.1917    -0.7595    -0.0090 C.ar    
   4 C4            -2.4106    -0.0864     0.0126 C.ar    
   5 C5            -2.4202     1.3179     0.0682 C.ar    
   6 C6            -1.2211     2.0280     0.1062 C.ar    
   7 N7            -3.5977    -0.7884    -0.0206 N.pl3   
   8 C8            -4.7952    -0.1899    -0.0028 C.2     
   9 C9            -4.9311     1.1822     0.0506 C.2     
  10 C10           -3.7195     2.0157     0.0905 C.2     
  11 C11           -6.2656     1.8014     0.0672 C.2     
  12 N12           -6.9954     1.7992     1.2002 N.am    
  13 C13           -6.5200     1.0990     2.4031 C.3     
  14 C14           -8.2856     2.5022     1.2685 C.3     
  15 C15           -8.2791     3.4128     2.5009 C.3     
  16 N16           -7.9402     2.6197     3.6901 N.3     
  17 C17           -6.5866     2.0677     3.5885 C.3     
  18 O18           -6.7102     2.3153    -0.9417 O.2     
  19 O19           -3.7866     3.2316     0.1384 O.2     
  20 C20           -3.5457    -2.2513    -0.0784 C.3     
  21 N21            1.1877     2.0456     0.1106 N.pl3   
  22 C22            2.4600     1.3197     0.0871 C.3     
  23 C23            3.5871     2.2063    -0.4838 C.3     
  24 C24            4.8262     1.8232     0.2966 C.ar    
  25 C25            4.4637     1.1505     1.4483 C.ar    
  26 C26            2.9561     1.0356     1.5208 C.3     
  27 C27            6.1651     2.0459     0.0208 C.ar    
  28 C28            7.1381     1.5978     0.8924 C.ar    
  29 C29            6.7755     0.9250     2.0445 C.ar    
  30 C30            5.4409     0.7023     2.3214 C.ar    
  31 C31           -3.5342    -2.8178     1.3428 C.3     
  32 C32           -8.0908     3.4167     4.9149 C.3     
  33 H33            0.9300    -0.5800     0.0061 H       
  34 H34           -1.1721    -1.8385    -0.0517 H       
  35 H35           -1.2294     3.1071     0.1493 H       
  36 H36           -5.6848    -0.8016    -0.0314 H       
  37 H37           -7.1558     0.2357     2.5995 H       
  38 H38           -5.4907     0.7729     2.2541 H       
  39 H39           -8.4230     3.1033     0.3697 H       
  40 H40           -9.0941     1.7761     1.3539 H       
  41 H41           -7.5388     4.2015     2.3666 H       
  42 H42           -9.2658     3.8578     2.6296 H       
  43 H43           -6.3429     1.5312     4.5055 H       
  44 H44           -5.8733     2.8785     3.4406 H       
  45 H45           -4.4199    -2.6252    -0.6114 H       
  46 H46           -2.6411    -2.5624    -0.6009 H       
  47 H47            1.1829     3.0149     0.1486 H       
  48 H48            2.3667     0.3960    -0.4840 H       
  49 H49            3.7295     2.0006    -1.5447 H       
  50 H50            3.3540     3.2600    -0.3300 H       
  51 H51            2.5534     1.7743     2.2137 H       
  52 H52            2.6678     0.0305     1.8286 H       
  53 H53            6.4491     2.5714    -0.8789 H       
  54 H54            8.1813     1.7725     0.6741 H       
  55 H55            7.5351     0.5737     2.7271 H       
  56 H56            5.1584     0.1766     3.2215 H       
  57 H57           -2.6600    -2.4439     1.8759 H       
  58 H58           -4.4388    -2.5067     1.8653 H       
  59 H59           -3.4955    -3.9062     1.2998 H       
  60 H60           -9.1230     3.7555     5.0033 H       
  61 H61           -7.8336     2.8055     5.7800 H       
  62 H62           -7.4274     4.2805     4.8701 H       
@<TRIPOS>BOND
   1    1    2 ar
   2    1   21 1
   3    1    6 ar
   4    2    3 ar
   5    2   33 1
   6    3    4 ar
   7    3   34 1
   8    4    5 ar
   9    4    7 1
  10    5    6 ar
  11    5   10 1
  12    6   35 1
  13    7    8 1
  14    7   20 1
  15    8    9 2
  16    8   36 1
  17    9   10 1
  18    9   11 1
  19   10   19 2
  20   11   12 am
  21   11   18 2
  22   12   13 1
  23   12   14 1
  24   13   17 1
  25   13   37 1
  26   13   38 1
  27   14   15 1
  28   14   39 1
  29   14   40 1
  30   15   16 1
  31   15   41 1
  32   15   42 1
  33   16   17 1
  34   16   32 1
  35   17   43 1
  36   17   44 1
  37   20   31 1
  38   20   45 1
  39   20   46 1
  40   21   22 1
  41   21   47 1
  42   22   23 1
  43   22   26 1
  44   22   48 1
  45   23   24 1
  46   23   49 1
  47   23   50 1
  48   24   25 ar
  49   24   27 ar
  50   25   26 1
  51   25   30 ar
  52   26   51 1
  53   26   52 1
  54   27   28 ar
  55   27   53 1
  56   28   29 ar
  57   28   54 1
  58   29   30 ar
  59   29   55 1
  60   30   56 1
  61   31   57 1
  62   31   58 1
  63   31   59 1
  64   32   60 1
  65   32   61 1
  66   32   62 1

#	End of record

