#	Name: ASD01812488
#	Creating user name:	WinNT
#	Creation time:	15. 06. 2019 19:28

#	Modifying user name:	WinNT
#	Modification time:	15. 06. 2019 19:28

#	Program:	/corina/corina34_cracker 3.40 0067  02.08.2006

@<TRIPOS>MOLECULE
ASD01812488
  68   73    0    0    0
SMALL
NO_CHARGES


@<TRIPOS>ATOM
   1 O1             0.1754     1.6777     0.2934 O.3     
   2 C2             0.2061     0.2525     0.1942 C.3     
   3 H3             0.6859    -0.1631     1.0802 H       
   4 C4             0.9952    -0.1551    -1.0517 C.3     
   5 C5             1.0281    -1.6810    -1.1580 C.3     
   6 C6            -0.4016    -2.2160    -1.2621 C.3     
   7 C7            -1.1906    -1.8084    -0.0162 C.3     
   8 C8            -1.2235    -0.2824     0.0901 C.3     
   9 H9            -1.7034     0.1332    -0.7960 H       
  10 N10           -1.9791     0.1078     1.2830 N.am    
  11 C11           -1.5586    -0.2954     2.5080 C.2     
  12 N12           -2.1785     0.0132     3.6096 N.2     
  13 C13           -3.2933     0.7631     3.6067 C.ar    
  14 C14           -3.8088     1.2301     2.3839 C.ar    
  15 C15           -4.9722     2.0148     2.3546 C.ar    
  16 C16           -5.6272     2.3432     3.4936 C.ar    
  17 C17           -6.8724     3.1883     3.4144 C.3     
  18 N18           -8.0528     2.3433     3.6388 N.3     
  19 C19           -8.0321     1.1663     2.7610 C.3     
  20 C20           -9.1945     0.2386     3.1219 C.3     
  21 C21          -10.5152     0.9963     2.9598 C.3     
  22 C22          -10.4914     2.2433     3.8480 C.3     
  23 C23           -9.2915     3.1129     3.4660 C.3     
  24 C24          -10.6829     1.3972     1.5534 C.1     
  25 N25          -10.8123     1.7065     0.4681 N.1     
  26 C26          -11.6599     0.1067     3.3712 C.ar    
  27 C27          -12.9054     0.6590     3.6014 C.ar    
  28 C28          -13.9522    -0.1683     3.9791 C.ar    
  29 C29          -13.7054    -1.5260     4.1115 C.ar    
  30 C30          -12.4332    -2.0065     3.8644 C.ar    
  31 N31          -11.4627    -1.1907     3.5021 N.ar    
  32 C32           -5.1643     1.9074     4.7528 C.ar    
  33 C33           -5.8460     2.2487     5.9310 C.ar    
  34 C34           -5.3765     1.8136     7.1344 C.ar    
  35 C35           -4.2274     1.0336     7.2148 C.ar    
  36 C36           -3.5400     0.6837     6.0893 C.ar    
  37 C37           -3.9948     1.1131     4.8384 C.ar    
  38 C38           -3.0882     0.8725     1.1552 C.2     
  39 O39           -3.4758     1.2468     0.0631 O.2     
  40 H40            1.0491     2.0861     0.3628 H       
  41 H41            0.5153     0.2606    -1.9378 H       
  42 H42            2.0137     0.2261    -0.9775 H       
  43 H43            1.5902    -1.9714    -2.0455 H       
  44 H44            1.5079    -2.0967    -0.2719 H       
  45 H45           -0.8814    -1.8003    -2.1482 H       
  46 H46           -0.3781    -3.3031    -1.3378 H       
  47 H47           -2.2091    -2.1895    -0.0904 H       
  48 H48           -0.7108    -2.2240     0.8698 H       
  49 H49           -0.6670    -0.9016     2.5720 H       
  50 H50           -5.3521     2.3636     1.4057 H       
  51 H51           -6.8324     3.9666     4.1765 H       
  52 H52           -6.9371     3.6484     2.4283 H       
  53 H53           -8.1308     1.4854     1.7234 H       
  54 H54           -7.0895     0.6342     2.8891 H       
  55 H55           -9.1881    -0.6273     2.4599 H       
  56 H56           -9.0890    -0.0919     4.1552 H       
  57 H57          -11.4116     2.8097     3.7048 H       
  58 H58          -10.4063     1.9444     4.8928 H       
  59 H59           -9.2635     3.9947     4.1062 H       
  60 H60           -9.3843     3.4228     2.4252 H       
  61 H61          -13.0616     1.7218     3.4889 H       
  62 H62          -14.9363     0.2355     4.1660 H       
  63 H63          -14.4971    -2.1997     4.4044 H       
  64 H64          -12.2326    -3.0629     3.9657 H       
  65 H65           -6.7390     2.8542     5.8844 H       
  66 H66           -5.9042     2.0786     8.0387 H       
  67 H67           -3.8749     0.7013     8.1801 H       
  68 H68           -2.6487     0.0784     6.1641 H       
@<TRIPOS>BOND
   1    1    2 1
   2    1   40 1
   3    2    3 1
   4    2    8 1
   5    2    4 1
   6    4    5 1
   7    4   41 1
   8    4   42 1
   9    5    6 1
  10    5   43 1
  11    5   44 1
  12    6    7 1
  13    6   45 1
  14    6   46 1
  15    7    8 1
  16    7   47 1
  17    7   48 1
  18    8    9 1
  19    8   10 1
  20   10   38 am
  21   10   11 1
  22   11   12 2
  23   11   49 1
  24   12   13 1
  25   13   37 ar
  26   13   14 ar
  27   14   15 ar
  28   14   38 1
  29   15   16 ar
  30   15   50 1
  31   16   17 1
  32   16   32 ar
  33   17   18 1
  34   17   51 1
  35   17   52 1
  36   18   23 1
  37   18   19 1
  38   19   20 1
  39   19   53 1
  40   19   54 1
  41   20   21 1
  42   20   55 1
  43   20   56 1
  44   21   22 1
  45   21   24 1
  46   21   26 1
  47   22   23 1
  48   22   57 1
  49   22   58 1
  50   23   59 1
  51   23   60 1
  52   24   25 3
  53   26   31 ar
  54   26   27 ar
  55   27   28 ar
  56   27   61 1
  57   28   29 ar
  58   28   62 1
  59   29   30 ar
  60   29   63 1
  61   30   31 ar
  62   30   64 1
  63   32   37 ar
  64   32   33 ar
  65   33   34 ar
  66   33   65 1
  67   34   35 ar
  68   34   66 1
  69   35   36 ar
  70   35   67 1
  71   36   37 ar
  72   36   68 1
  73   38   39 2

#	End of record

