#	Name: ASD01880997
#	Creating user name:	WinNT
#	Creation time:	15. 06. 2019 19:41

#	Modifying user name:	WinNT
#	Modification time:	15. 06. 2019 19:41

#	Program:	/corina/corina34_cracker 3.40 0067  02.08.2006

@<TRIPOS>MOLECULE
ASD01880997
  47   50    0    0    0
SMALL
NO_CHARGES


@<TRIPOS>ATOM
   1 N1            -0.0139     1.3122    -0.0055 N.ar    
   2 C2             0.0051    -0.0049    -0.0269 C.ar    
   3 N3             1.1344    -0.6837    -0.0557 N.ar    
   4 C4             2.3056    -0.0609    -0.0647 C.ar    
   5 C5             2.3340     1.3220    -0.0435 C.ar    
   6 C6             1.1197     2.0085    -0.0128 C.ar    
   7 C7             3.6433     2.0681    -0.0523 C.3     
   8 O8             4.0360     2.3250    -1.4020 O.3     
   9 C9             5.2021     2.9939    -1.5877 C.ar    
  10 C10            5.6433     3.2770    -2.8771 C.ar    
  11 C11            6.8224     3.9539    -3.0647 C.ar    
  12 C12            7.5866     4.3627    -1.9663 C.ar    
  13 C13            7.1392     4.0760    -0.6722 C.ar    
  14 C14            5.9510     3.4002    -0.4906 C.ar    
  15 C15            7.5675     4.4093    -4.2946 C.3     
  16 N16            8.7766     5.0872    -3.8132 N.am    
  17 C17            8.7832     5.0578    -2.4695 C.2     
  18 O18            9.6535     5.5374    -1.7688 O.2     
  19 Cl19           3.7842    -0.9698    -0.1021 Cl      
  20 Cl20           8.0748     4.5752     0.7022 Cl      
  21 N21            1.0949     3.3948     0.0089 N.pl3   
  22 C22           -0.1239     4.0734    -0.0813 C.ar    
  23 C23           -0.3078     5.2679     0.6034 C.ar    
  24 C24           -1.5131     5.9359     0.5122 C.ar    
  25 C25           -2.5365     5.4165    -0.2595 C.ar    
  26 C26           -2.3567     4.2276    -0.9424 C.ar    
  27 C27           -1.1518     3.5577    -0.8604 C.ar    
  28 C28            9.4507     7.1609    -4.9208 C.3     
  29 C29            9.8068     5.6963    -4.6581 C.3     
  30 H30           -0.9310    -0.5434    -0.0203 H       
  31 H31            3.5266     3.0131     0.4783 H       
  32 H32            4.4074     1.4668     0.4402 H       
  33 H33            5.0584     2.9640    -3.7294 H       
  34 H34            5.6052     3.1791     0.5084 H       
  35 H35            7.8388     3.5501    -4.9081 H       
  36 H36            6.9533     5.1022    -4.8697 H       
  37 H37            1.9231     3.8935     0.0867 H       
  38 H38            0.4908     5.6737     1.2068 H       
  39 H39           -1.6568     6.8646     1.0443 H       
  40 H40           -3.4783     5.9405    -0.3286 H       
  41 H41           -3.1581     3.8246    -1.5439 H       
  42 H42           -1.0120     2.6293    -1.3941 H       
  43 H43            8.4868     7.2153    -5.4269 H       
  44 H44            9.3943     7.6967    -3.9733 H       
  45 H45           10.2172     7.6141    -5.5495 H       
  46 H46           10.7707     5.6419    -4.1520 H       
  47 H47            9.8632     5.1605    -5.6056 H       
@<TRIPOS>BOND
   1    1    2 ar
   2    1    6 ar
   3    2    3 ar
   4    2   30 1
   5    3    4 ar
   6    4    5 ar
   7    4   19 1
   8    5    6 ar
   9    5    7 1
  10    6   21 1
  11    7    8 1
  12    7   31 1
  13    7   32 1
  14    8    9 1
  15    9   10 ar
  16    9   14 ar
  17   10   11 ar
  18   10   33 1
  19   11   12 ar
  20   11   15 1
  21   12   13 ar
  22   12   17 1
  23   13   14 ar
  24   13   20 1
  25   14   34 1
  26   15   16 1
  27   15   35 1
  28   15   36 1
  29   16   17 am
  30   16   29 1
  31   17   18 2
  32   21   22 1
  33   21   37 1
  34   22   23 ar
  35   22   27 ar
  36   23   24 ar
  37   23   38 1
  38   24   25 ar
  39   24   39 1
  40   25   26 ar
  41   25   40 1
  42   26   27 ar
  43   26   41 1
  44   27   42 1
  45   28   29 1
  46   28   43 1
  47   28   44 1
  48   28   45 1
  49   29   46 1
  50   29   47 1

#	End of record

