#	Name: ASD01903165
#	Creating user name:	WinNT
#	Creation time:	15. 06. 2019 19:54

#	Modifying user name:	WinNT
#	Modification time:	15. 06. 2019 19:54

#	Program:	/corina/corina34_cracker 3.40 0067  02.08.2006

@<TRIPOS>MOLECULE
ASD01903165
  53   56    0    0    0
SMALL
NO_CHARGES


@<TRIPOS>ATOM
   1 C1             1.5137    -1.1130     2.4997 C.ar    
   2 C2             0.5120    -0.5495     1.7252 C.ar    
   3 C3             0.8201     0.5010     0.8751 C.ar    
   4 N4             2.0470     0.9675     0.7952 N.ar    
   5 C5             3.0350     0.4562     1.5196 C.ar    
   6 C6             2.7976    -0.6010     2.3949 C.ar    
   7 C7             4.4014     1.0147     1.3960 C.2     
   8 N8             4.6374     2.0376     0.5508 N.am    
   9 O9             5.3097     0.5505     2.0567 O.2     
  10 C10            5.9042     2.6279     0.5041 C.ar    
  11 C11            7.0418     1.8486     0.6702 C.ar    
  12 C12            8.2914     2.4347     0.6236 C.ar    
  13 C13            8.4108     3.7961     0.4118 C.ar    
  14 C14            7.2801     4.5749     0.2464 C.ar    
  15 C15            6.0278     3.9940     0.2858 C.ar    
  16 S16           10.0070     4.5399     0.3530 S.o2    
  17 O17            9.8232     5.9105     0.6800 O.2     
  18 O18           10.8777     3.6789     1.0738 O.2     
  19 N19           10.5091     4.4989    -1.2245 N.am    
  20 C20            9.7606     5.1424    -2.2127 C.ar    
  21 C21            9.7210     4.6274    -3.5020 C.ar    
  22 C22            8.9794     5.2661    -4.4766 C.ar    
  23 C23            8.2773     6.4171    -4.1701 C.ar    
  24 C24            8.3146     6.9326    -2.8873 C.ar    
  25 C25            9.0493     6.2960    -1.9067 C.ar    
  26 C26           10.4867     3.3735    -3.8372 C.3     
  27 C27            9.6544     2.1674    -3.4853 C.ar    
  28 C28            8.8000     1.6196    -4.4237 C.ar    
  29 C29            8.0365     0.5134    -4.1009 C.ar    
  30 C30            8.1278    -0.0453    -2.8398 C.ar    
  31 C31            8.9830     0.5019    -1.9016 C.ar    
  32 C32            9.7497     1.6056    -2.2259 C.ar    
  33 H33            1.2979    -1.9295     3.1729 H       
  34 H34           -0.4988    -0.9255     1.7831 H       
  35 H35            0.0420     0.9422     0.2699 H       
  36 H36            3.6025    -1.0161     2.9833 H       
  37 H37            3.9286     2.3643    -0.0251 H       
  38 H38            6.9493     0.7854     0.8360 H       
  39 H39            9.1764     1.8294     0.7531 H       
  40 H40            7.3767     5.6379     0.0815 H       
  41 H41            5.1451     4.6029     0.1566 H       
  42 H42           11.3231     4.0279    -1.4623 H       
  43 H43            8.9482     4.8661    -5.4794 H       
  44 H44            7.6988     6.9149    -4.9343 H       
  45 H45            7.7653     7.8321    -2.6513 H       
  46 H46            9.0777     6.6989    -0.9051 H       
  47 H47           10.7132     3.3601    -4.9033 H       
  48 H48           11.4161     3.3522    -3.2681 H       
  49 H49            8.7286     2.0561    -5.4090 H       
  50 H50            7.3684     0.0858    -4.8338 H       
  51 H51            7.5308    -0.9092    -2.5873 H       
  52 H52            9.0541     0.0656    -0.9162 H       
  53 H53           10.4178     2.0331    -1.4929 H       
@<TRIPOS>BOND
   1    1    2 ar
   2    1    6 ar
   3    1   33 1
   4    2    3 ar
   5    2   34 1
   6    3    4 ar
   7    3   35 1
   8    4    5 ar
   9    5    6 ar
  10    5    7 1
  11    6   36 1
  12    7    8 am
  13    7    9 2
  14    8   10 1
  15    8   37 1
  16   10   11 ar
  17   10   15 ar
  18   11   12 ar
  19   11   38 1
  20   12   13 ar
  21   12   39 1
  22   13   14 ar
  23   13   16 1
  24   14   15 ar
  25   14   40 1
  26   15   41 1
  27   16   17 2
  28   16   18 2
  29   16   19 am
  30   19   20 1
  31   19   42 1
  32   20   21 ar
  33   20   25 ar
  34   21   22 ar
  35   21   26 1
  36   22   23 ar
  37   22   43 1
  38   23   24 ar
  39   23   44 1
  40   24   25 ar
  41   24   45 1
  42   25   46 1
  43   26   27 1
  44   26   47 1
  45   26   48 1
  46   27   28 ar
  47   27   32 ar
  48   28   29 ar
  49   28   49 1
  50   29   30 ar
  51   29   50 1
  52   30   31 ar
  53   30   51 1
  54   31   32 ar
  55   31   52 1
  56   32   53 1

#	End of record

