#	Name: ASD04012018
#	Creating user name:	WinNT
#	Creation time:	15. 06. 2019 20:48

#	Modifying user name:	WinNT
#	Modification time:	15. 06. 2019 20:48

#	Program:	/corina/corina34_cracker 3.40 0067  02.08.2006

@<TRIPOS>MOLECULE
ASD04012018
  29   30    0    0    0
SMALL
NO_CHARGES


@<TRIPOS>ATOM
   1 N1            -0.0169     1.3966     0.0097 N.pl3   
   2 C2             1.2885     1.8004    -0.0006 C.2     
   3 N3             1.5928     3.1035     0.0035 N.2     
   4 C4             0.6476     4.0208     0.0175 C.2     
   5 C5            -0.6977     3.6478     0.0288 C.2     
   6 C6            -1.0210     2.3193     0.0193 C.2     
   7 N7             0.0021    -0.0041     0.0020 N.2     
   8 C8             1.2602    -0.3712    -0.0120 C.2     
   9 N9             2.0384     0.7041    -0.0136 N.2     
  10 O10           -2.3151     1.9268     0.0298 O.3     
  11 C11           -1.7800     4.6963     0.0457 C.3     
  12 C12           -2.0445     5.1332     1.4879 C.3     
  13 Cl13           1.0771     5.7028     0.0224 Cl      
  14 C14           -3.1433     6.1977     1.5051 C.3     
  15 C15           -3.4951     6.5441     2.9532 C.3     
  16 C16           -2.6476     7.4539     0.7861 C.3     
  17 H17            1.6104    -1.3928    -0.0205 H       
  18 H18           -2.4352     0.9673     0.0217 H       
  19 H19           -1.4611     5.5572    -0.5420 H       
  20 H20           -2.6933     4.2827    -0.3819 H       
  21 H21           -2.3633     4.2723     2.0756 H       
  22 H22           -1.1311     5.5468     1.9155 H       
  23 H23           -4.0286     5.8142     0.9979 H       
  24 H24           -2.6098     6.9276     3.4604 H       
  25 H25           -4.2780     7.3025     2.9654 H       
  26 H26           -3.8483     5.6491     3.4654 H       
  27 H27           -1.7623     7.8374     1.2934 H       
  28 H28           -2.3969     7.2071    -0.2456 H       
  29 H29           -3.4304     8.2123     0.7983 H       
@<TRIPOS>BOND
   1    1    7 1
   2    1    2 1
   3    1    6 1
   4    2    3 1
   5    2    9 2
   6    3    4 2
   7    4    5 1
   8    4   13 1
   9    5    6 2
  10    5   11 1
  11    6   10 1
  12    7    8 2
  13    8    9 1
  14    8   17 1
  15   10   18 1
  16   11   12 1
  17   11   19 1
  18   11   20 1
  19   12   14 1
  20   12   21 1
  21   12   22 1
  22   14   15 1
  23   14   16 1
  24   14   23 1
  25   15   24 1
  26   15   25 1
  27   15   26 1
  28   16   27 1
  29   16   28 1
  30   16   29 1

#	End of record

