#	Name: ASD01882587
#	Creating user name:	WinNT
#	Creation time:	15. 06. 2019 19:44

#	Modifying user name:	WinNT
#	Modification time:	15. 06. 2019 19:44

#	Program:	/corina/corina34_cracker 3.40 0067  02.08.2006

@<TRIPOS>MOLECULE
ASD01882587
  53   57    0    0    0
SMALL
NO_CHARGES


@<TRIPOS>ATOM
   1 C1            -0.7236     2.7072     1.7151 C.3     
   2 C2            -0.6400     1.2573     1.1915 C.3     
   3 N3            -0.3406     0.4410     2.3961 N.3     
   4 C4             0.6259     1.2662     3.1653 C.3     
   5 C5             0.1092     2.7131     3.0136 C.3     
   6 C6             0.5701     3.5199     1.7981 C.3     
   7 C7             1.7635     3.0056     1.0350 C.ar    
   8 C8             1.6661     2.7702    -0.3237 C.ar    
   9 C9             2.7608     2.2984    -1.0236 C.ar    
  10 C10            3.9531     2.0624    -0.3649 C.ar    
  11 C11            4.0507     2.2987     0.9936 C.ar    
  12 C12            2.9573     2.7746     1.6927 C.ar    
  13 C13            0.2505    -0.8511     2.0229 C.3     
  14 C14            0.4812    -3.0849     5.0614 C.2     
  15 C15           -0.0177    -2.4479     3.9089 C.2     
  16 C16            0.7638    -1.5443     3.2586 C.2     
  17 C17            2.0521    -1.2600     3.7432 C.2     
  18 C18            2.5170    -1.8786     4.8488 C.2     
  19 N19            1.7443    -2.7868     5.5107 N.pl3   
  20 N20            0.8447    -4.2487     6.8094 N.2     
  21 N21           -0.0209    -3.9806     5.8957 N.2     
  22 C22            1.9340    -3.5494     6.6215 C.2     
  23 C23           -1.4012    -2.7637     3.4019 C.3     
  24 F24           -1.3103    -3.6297     2.3069 F       
  25 F25           -2.1426    -3.3743     4.4191 F       
  26 F26           -2.0353    -1.5801     3.0090 F       
  27 C27            3.1722    -3.5809     7.4799 C.3     
  28 O28            3.0587    -2.6030     8.5157 O.3     
  29 C29            4.1868    -2.5500     9.3912 C.3     
  30 C30            3.9569    -1.4745    10.4548 C.3     
  31 H31           -1.6779     3.2249     1.6183 H       
  32 H32           -1.5919     0.9554     0.7547 H       
  33 H33            0.1622     1.1631     0.4595 H       
  34 H34            0.6272     0.9711     4.2146 H       
  35 H35            1.6262     1.1735     2.7423 H       
  36 H36           -0.2338     3.2238     3.9134 H       
  37 H37            0.4793     4.6048     1.8514 H       
  38 H38            0.7347     2.9545    -0.8382 H       
  39 H39            2.6846     2.1138    -2.0850 H       
  40 H40            4.8081     1.6931    -0.9117 H       
  41 H41            4.9821     2.1140     1.5082 H       
  42 H42            3.0346     2.9627     2.7534 H       
  43 H43           -0.5070    -1.4728     1.5456 H       
  44 H44            1.0752    -0.6865     1.3294 H       
  45 H45            2.6736    -0.5427     3.2277 H       
  46 H46            3.5087    -1.6528     5.2122 H       
  47 H47            3.2811    -4.5701     7.9244 H       
  48 H48            4.0456    -3.3602     6.8661 H       
  49 H49            4.3168    -3.5179     9.8754 H       
  50 H50            5.0812    -2.3080     8.8171 H       
  51 H51            3.8270    -0.5066     9.9706 H       
  52 H52            3.0625    -1.7165    11.0289 H       
  53 H53            4.8174    -1.4340    11.1226 H       
@<TRIPOS>BOND
   1    1    2 1
   2    1    6 1
   3    1    5 1
   4    1   31 1
   5    2    3 1
   6    2   32 1
   7    2   33 1
   8    3    4 1
   9    3   13 1
  10    4    5 1
  11    4   34 1
  12    4   35 1
  13    5    6 1
  14    5   36 1
  15    6    7 1
  16    6   37 1
  17    7    8 ar
  18    7   12 ar
  19    8    9 ar
  20    8   38 1
  21    9   10 ar
  22    9   39 1
  23   10   11 ar
  24   10   40 1
  25   11   12 ar
  26   11   41 1
  27   12   42 1
  28   13   16 1
  29   13   43 1
  30   13   44 1
  31   14   15 1
  32   14   19 1
  33   14   21 2
  34   15   16 2
  35   15   23 1
  36   16   17 1
  37   17   18 2
  38   17   45 1
  39   18   19 1
  40   18   46 1
  41   19   22 1
  42   20   21 1
  43   20   22 2
  44   22   27 1
  45   23   24 1
  46   23   25 1
  47   23   26 1
  48   27   28 1
  49   27   47 1
  50   27   48 1
  51   28   29 1
  52   29   30 1
  53   29   49 1
  54   29   50 1
  55   30   51 1
  56   30   52 1
  57   30   53 1

#	End of record

