#	Name: ASD02038186
#	Creating user name:	WinNT
#	Creation time:	15. 06. 2019 20:16

#	Modifying user name:	WinNT
#	Modification time:	15. 06. 2019 20:16

#	Program:	/corina/corina34_cracker 3.40 0067  02.08.2006

@<TRIPOS>MOLECULE
ASD02038186
  50   52    0    0    0
SMALL
NO_CHARGES


@<TRIPOS>ATOM
   1 C1             0.1106     2.0137    -0.3336 C.3     
   2 C2             0.2340     0.4905    -0.2202 C.3     
   3 N3             1.0055    -0.0028    -1.3711 N.am    
   4 C4             0.5394    -1.0099    -2.1359 C.2     
   5 C5             1.3464    -1.4997    -3.3106 C.3     
   6 O6             0.6469    -2.5642    -3.9584 O.3     
   7 C7             1.2427    -3.1227    -5.0459 C.ar    
   8 C8             0.6181    -4.1604    -5.7219 C.ar    
   9 C9             2.4719    -2.6506    -5.4818 C.ar    
  10 C10            3.0774    -3.2169    -6.5863 C.ar    
  11 C11            2.4554    -4.2596    -7.2603 C.ar    
  12 C12            1.2224    -4.7282    -6.8264 C.ar    
  13 N13            3.0682    -4.8340    -8.3796 N.am    
  14 C14            2.2990     0.6324    -1.6656 C.3     
  15 C15            2.0943     2.1500    -1.7221 C.3     
  16 N16            1.4492     2.6005    -0.4816 N.3     
  17 C17            1.3935     3.9956    -0.4242 C.ar    
  18 C18            0.8185     4.6244     0.6731 C.ar    
  19 C19            0.7645     6.0032     0.7279 C.ar    
  20 C20            1.2820     6.7592    -0.3091 C.ar    
  21 C21            1.8558     6.1357    -1.4043 C.ar    
  22 C22            1.9179     4.7558    -1.4611 C.ar    
  23 Cl23           2.5040     7.0874    -2.7035 Cl      
  24 Cl24           1.2112     8.4923    -0.2373 Cl      
  25 O25           -0.5296    -1.5219    -1.8788 O.2     
  26 S26            4.3580    -5.8544    -8.1851 S.o2    
  27 O27            4.6961    -6.2479    -9.5079 O.2     
  28 O28            5.2709    -5.1165    -7.3842 O.2     
  29 C29            3.6870    -7.2597    -7.2548 C.3     
  30 H30           -0.4953     2.2657    -1.2040 H       
  31 H31           -0.3621     2.4083     0.5658 H       
  32 H32            0.7505     0.2329     0.7044 H       
  33 H33           -0.7591     0.0413    -0.2254 H       
  34 H34            1.4960    -0.6815    -4.0151 H       
  35 H35            2.3140    -1.8602    -2.9616 H       
  36 H36           -0.3409    -4.5247    -5.3842 H       
  37 H37            2.9554    -1.8396    -4.9575 H       
  38 H38            4.0342    -2.8487    -6.9260 H       
  39 H39            0.7380    -5.5391    -7.3499 H       
  40 H40            2.7375    -4.6345    -9.2694 H       
  41 H41            3.0140     0.3884    -0.8799 H       
  42 H42            2.6711     0.2771    -2.6265 H       
  43 H43            3.0602     2.6436    -1.8297 H       
  44 H44            1.4608     2.4002    -2.5731 H       
  45 H45            0.4137     4.0352     1.4827 H       
  46 H46            0.3175     6.4921     1.5809 H       
  47 H47            2.3654     4.2695    -2.3153 H       
  48 H48            2.8263    -7.6683    -7.7843 H       
  49 H49            4.4525    -8.0295    -7.1571 H       
  50 H50            3.3790    -6.9258    -6.2640 H       
@<TRIPOS>BOND
   1    1    2 1
   2    1   16 1
   3    1   30 1
   4    1   31 1
   5    2    3 1
   6    2   32 1
   7    2   33 1
   8    3    4 am
   9    3   14 1
  10    4    5 1
  11    4   25 2
  12    5    6 1
  13    5   34 1
  14    5   35 1
  15    6    7 1
  16    7    8 ar
  17    7    9 ar
  18    8   12 ar
  19    8   36 1
  20    9   10 ar
  21    9   37 1
  22   10   11 ar
  23   10   38 1
  24   11   12 ar
  25   11   13 1
  26   12   39 1
  27   13   26 am
  28   13   40 1
  29   14   15 1
  30   14   41 1
  31   14   42 1
  32   15   16 1
  33   15   43 1
  34   15   44 1
  35   16   17 1
  36   17   18 ar
  37   17   22 ar
  38   18   19 ar
  39   18   45 1
  40   19   20 ar
  41   19   46 1
  42   20   21 ar
  43   20   24 1
  44   21   22 ar
  45   21   23 1
  46   22   47 1
  47   26   27 2
  48   26   28 2
  49   26   29 1
  50   29   48 1
  51   29   49 1
  52   29   50 1

#	End of record

