#	Name: ASD05430698
#	Creating user name:	WinNT
#	Creation time:	15. 06. 2019 21:00

#	Modifying user name:	WinNT
#	Modification time:	15. 06. 2019 21:00

#	Program:	/corina/corina34_cracker 3.40 0067  02.08.2006

@<TRIPOS>MOLECULE
ASD05430698
  23   23    0    0    0
SMALL
NO_CHARGES


@<TRIPOS>ATOM
   1 C1            -0.0167     1.3767     0.0096 C.ar    
   2 C2             0.0021    -0.0041     0.0020 C.ar    
   3 N3            -1.1214    -0.6960     0.0090 N.ar    
   4 C4            -2.3978     1.2806     0.0432 C.ar    
   5 C5            -1.2361     2.0380     0.0306 C.ar    
   6 C6             1.2730     2.1564     0.0015 C.3     
   7 C7            -2.3009    -0.1038     0.0234 C.ar    
   8 C8             2.4556     1.1858    -0.0150 C.3     
   9 C9             1.3244     3.0441    -1.2436 C.3     
  10 C10            1.3482     3.0307     1.2548 C.3     
  11 F11           -3.6072     1.8822     0.0642 F       
  12 F12           -3.4251    -0.8530     0.0349 F       
  13 H13            0.9485    -0.5243    -0.0101 H       
  14 H14           -1.2796     3.1170     0.0454 H       
  15 H15            2.4020     0.5629    -0.9079 H       
  16 H16            3.3884     1.7497    -0.0209 H       
  17 H17            2.4190     0.5533     0.8720 H       
  18 H18            0.4818     3.7356    -1.2318 H       
  19 H19            2.2571     3.6081    -1.2494 H       
  20 H20            1.2707     2.4212    -2.1364 H       
  21 H21            1.3116     2.3982     2.1418 H       
  22 H22            2.2810     3.5946     1.2489 H       
  23 H23            0.5057     3.7222     1.2665 H       
@<TRIPOS>BOND
   1    1    2 ar
   2    1    6 1
   3    1    5 ar
   4    2    3 ar
   5    2   13 1
   6    3    7 ar
   7    4    5 ar
   8    4   11 1
   9    4    7 ar
  10    5   14 1
  11    6    8 1
  12    6    9 1
  13    6   10 1
  14    7   12 1
  15    8   15 1
  16    8   16 1
  17    8   17 1
  18    9   18 1
  19    9   19 1
  20    9   20 1
  21   10   21 1
  22   10   22 1
  23   10   23 1

#	End of record

