#	Name: ASD01708013
#	Creating user name:	WinNT
#	Creation time:	15. 06. 2019 19:22

#	Modifying user name:	WinNT
#	Modification time:	15. 06. 2019 19:22

#	Program:	/corina/corina34_cracker 3.40 0067  02.08.2006

@<TRIPOS>MOLECULE
ASD01708013
  64   68    0    0    0
SMALL
NO_CHARGES


@<TRIPOS>ATOM
   1 C1            -0.0537     1.5020     0.0985 C.3     
   2 C2            -0.0228    -0.0065    -0.0580 C.ar    
   3 C3             1.2585     1.7699     0.8727 C.3     
   4 O4             2.0773     0.6450     0.5114 O.3     
   5 C5             1.2777    -0.4165     0.2148 C.ar    
   6 C6             1.5843    -1.7709     0.1549 C.ar    
   7 C7             0.5991    -2.6966    -0.1823 C.ar    
   8 C8            -0.6988    -2.2654    -0.4601 C.ar    
   9 C9            -0.9994    -0.9192    -0.3956 C.ar    
  10 C10            0.9290    -4.1365    -0.2464 C.2     
  11 N11            0.0161    -5.0543     0.1286 N.am    
  12 O12            2.0236    -4.4924    -0.6372 O.2     
  13 C13            0.2632    -6.4955    -0.0443 C.3     
  14 C14           -1.2612    -4.6582     0.7308 C.3     
  15 C15           -1.5576    -5.5387     1.9196 C.ar    
  16 C16           -0.8340    -6.6803     2.1886 C.ar    
  17 C17            0.3199    -7.1314     1.3437 C.3     
  18 C18           -2.6025    -5.1626     2.7553 C.ar    
  19 C19           -2.9341    -5.9237     3.8550 C.ar    
  20 C20           -2.2109    -7.0875     4.1309 C.ar    
  21 C21           -1.1616    -7.4582     3.2912 C.ar    
  22 Cl22          -0.2587    -8.9025     3.6262 Cl      
  23 Cl23          -4.2406    -5.4402     4.8908 Cl      
  24 C24           -2.5557    -7.9180     5.3026 C.2     
  25 N25           -1.9703    -7.6799     6.4930 N.am    
  26 O26           -3.3675    -8.8163     5.1933 O.2     
  27 C27           -2.3122    -8.5037     7.6552 C.3     
  28 C28           -1.1511    -8.4871     8.6515 C.3     
  29 C29           -3.5490    -7.9514     8.3159 C.2     
  30 O30           -4.0503    -8.5494     9.4081 O.3     
  31 O31           -4.0893    -6.9704     7.8625 O.2     
  32 C32            0.0516    -9.1510     8.0322 C.2     
  33 C33            1.0064    -8.5353     7.3120 C.2     
  34 O34            0.3552   -10.4570     8.1107 O.3     
  35 C35            1.4959   -10.6925     7.4421 C.2     
  36 C36            1.9361    -9.5294     6.9295 C.2     
  37 S37            2.2845   -12.2587     7.2694 S.o2    
  38 O38            3.0205   -12.1489     6.0589 O.2     
  39 C39            3.4075   -12.3592     8.6904 C.3     
  40 O40            1.2278   -13.1996     7.4015 O.2     
  41 H41           -0.0401     1.9949    -0.8736 H       
  42 H42           -0.9204     1.8156     0.6805 H       
  43 H43            1.7171     2.7026     0.5441 H       
  44 H44            1.0764     1.7856     1.9472 H       
  45 H45            2.5882    -2.1063     0.3699 H       
  46 H46           -1.4637    -2.9806    -0.7244 H       
  47 H47           -2.0023    -0.5804    -0.6096 H       
  48 H48           -0.5464    -6.9419    -0.6217 H       
  49 H49            1.2119    -6.6480    -0.5589 H       
  50 H50           -1.2026    -3.6191     1.0547 H       
  51 H51           -2.0576    -4.7634    -0.0059 H       
  52 H52            0.2837    -8.2155     1.2369 H       
  53 H53            1.2531    -6.8511     1.8324 H       
  54 H54           -3.1607    -4.2633     2.5405 H       
  55 H55           -1.3225    -6.9632     6.5802 H       
  56 H56           -2.4993    -9.5278     7.3323 H       
  57 H57           -0.9059    -7.4561     8.9065 H       
  58 H58           -1.4391    -9.0260     9.5541 H       
  59 H59           -4.8449    -8.1588     9.7968 H       
  60 H60            1.0536    -7.4834     7.0719 H       
  61 H61            2.8282    -9.3831     6.3386 H       
  62 H62            2.8321   -12.2930     9.6137 H       
  63 H63            3.9435   -13.3080     8.6635 H       
  64 H64            4.1219   -11.5371     8.6477 H       
@<TRIPOS>BOND
   1    1    2 1
   2    1    3 1
   3    1   41 1
   4    1   42 1
   5    2    5 ar
   6    2    9 ar
   7    3    4 1
   8    3   43 1
   9    3   44 1
  10    4    5 1
  11    5    6 ar
  12    6    7 ar
  13    6   45 1
  14    7    8 ar
  15    7   10 1
  16    8    9 ar
  17    8   46 1
  18    9   47 1
  19   10   11 am
  20   10   12 2
  21   11   13 1
  22   11   14 1
  23   13   17 1
  24   13   48 1
  25   13   49 1
  26   14   15 1
  27   14   50 1
  28   14   51 1
  29   15   16 ar
  30   15   18 ar
  31   16   17 1
  32   16   21 ar
  33   17   52 1
  34   17   53 1
  35   18   19 ar
  36   18   54 1
  37   19   20 ar
  38   19   23 1
  39   20   21 ar
  40   20   24 1
  41   21   22 1
  42   24   25 am
  43   24   26 2
  44   25   27 1
  45   25   55 1
  46   27   28 1
  47   27   29 1
  48   27   56 1
  49   28   32 1
  50   28   57 1
  51   28   58 1
  52   29   30 1
  53   29   31 2
  54   30   59 1
  55   32   33 2
  56   32   34 1
  57   33   36 1
  58   33   60 1
  59   34   35 1
  60   35   36 2
  61   35   37 1
  62   36   61 1
  63   37   38 2
  64   37   39 1
  65   37   40 2
  66   39   62 1
  67   39   63 1
  68   39   64 1

#	End of record

