#	Name: ASD06152008
#	Creating user name:	WinNT
#	Creation time:	15. 06. 2019 21:05

#	Modifying user name:	WinNT
#	Modification time:	15. 06. 2019 21:05

#	Program:	/corina/corina34_cracker 3.40 0067  02.08.2006

@<TRIPOS>MOLECULE
ASD06152008
  54   56    0    0    0
SMALL
NO_CHARGES


@<TRIPOS>ATOM
   1 C1            -0.0168     1.3848     0.0097 C.ar    
   2 C2             0.0021    -0.0041     0.0020 C.ar    
   3 C3            -1.1608    -0.7175    -0.0075 C.ar    
   4 C4            -2.3939    -0.0460    -0.0217 C.ar    
   5 C5            -2.4108     1.3627     0.0263 C.ar    
   6 C6            -1.2141     2.0686     0.0305 C.ar    
   7 N7            -3.5429    -0.7489    -0.0936 N.2     
   8 C8            -4.6820    -0.1309    -0.2377 C.2     
   9 C9            -4.7325     1.3463    -0.2931 C.2     
  10 N10           -3.6228     2.0355     0.1023 N.pl3   
  11 C11           -5.9844    -0.8310    -0.3468 C.2     
  12 N12           -6.9860    -0.1150    -1.0326 N.am    
  13 C13           -6.8933     1.2231    -1.1258 C.2     
  14 N14           -5.8333     1.9267    -0.7268 N.2     
  15 C15           -6.1928    -2.0494     0.1661 C.2     
  16 O16           -7.8355     1.8299    -1.6043 O.2     
  17 C17            1.2813     2.1503     0.0014 C.3     
  18 C18            1.3221    -0.7311     0.0038 C.3     
  19 C19           -3.7065     3.4167     0.5834 C.3     
  20 C20           -3.9174     3.4170     2.0988 C.3     
  21 O21           -2.7670     2.8625     2.7399 O.3     
  22 C22           -4.1293     4.8525     2.5839 C.3     
  23 C23           -4.2158     4.8671     4.1114 C.3     
  24 O24           -3.0324     5.6650     2.1611 O.3     
  25 O25           -3.0517     4.2461     4.6603 O.3     
  26 C26           -4.3025     6.3132     4.6035 C.3     
  27 O27           -4.5001     6.3238     6.0187 O.3     
  28 P28           -4.6365     7.6803     6.8750 P.3     
  29 O29           -5.9739     8.4610     6.4343 O.3     
  30 O30           -4.7172     7.3200     8.4421 O.3     
  31 O31           -3.4584     8.5410     6.6267 O.2     
  32 H32           -1.1329    -1.7972    -0.0045 H       
  33 H33           -1.2216     3.1485     0.0422 H       
  34 H34           -7.7349    -0.5831    -1.4339 H       
  35 H35           -5.3949    -2.5610     0.6838 H       
  36 H36           -7.1588    -2.5210     0.0624 H       
  37 H37            1.5845     2.3403    -1.0282 H       
  38 H38            1.1472     3.0987     0.5216 H       
  39 H39            2.0512     1.5654     0.5047 H       
  40 H40            1.6358    -0.9121     1.0318 H       
  41 H41            1.2132    -1.6831    -0.5158 H       
  42 H42            2.0720    -0.1240    -0.5034 H       
  43 H43           -2.7811     3.9412     0.3452 H       
  44 H44           -4.5440     3.9198     0.0999 H       
  45 H45           -4.7942     2.8176     2.3437 H       
  46 H46           -1.9481     3.3464     2.5657 H       
  47 H47           -5.0554     5.2451     2.1638 H       
  48 H48           -5.1035     4.3210     4.4303 H       
  49 H49           -2.1742     5.3736     2.4983 H       
  50 H50           -2.2226     4.6804     4.4173 H       
  51 H51           -3.3766     6.8353     4.3621 H       
  52 H52           -5.1393     6.8134     4.1160 H       
  53 H53           -6.7870     7.9553     6.5693 H       
  54 H54           -4.8007     8.0914     9.0193 H       
@<TRIPOS>BOND
   1    1    2 ar
   2    1   17 1
   3    1    6 ar
   4    2    3 ar
   5    2   18 1
   6    3    4 ar
   7    3   32 1
   8    4    5 ar
   9    4    7 1
  10    5    6 ar
  11    5   10 1
  12    6   33 1
  13    7    8 2
  14    8    9 1
  15    8   11 1
  16    9   10 1
  17    9   14 2
  18   10   19 1
  19   11   12 1
  20   11   15 2
  21   12   13 am
  22   12   34 1
  23   13   14 1
  24   13   16 2
  25   15   35 1
  26   15   36 1
  27   17   37 1
  28   17   38 1
  29   17   39 1
  30   18   40 1
  31   18   41 1
  32   18   42 1
  33   19   20 1
  34   19   43 1
  35   19   44 1
  36   20   21 1
  37   20   22 1
  38   20   45 1
  39   21   46 1
  40   22   23 1
  41   22   24 1
  42   22   47 1
  43   23   25 1
  44   23   26 1
  45   23   48 1
  46   24   49 1
  47   25   50 1
  48   26   27 1
  49   26   51 1
  50   26   52 1
  51   27   28 1
  52   28   29 1
  53   28   30 1
  54   28   31 2
  55   29   53 1
  56   30   54 1

#	End of record

