#	Name: ASD01816876
#	Creating user name:	WinNT
#	Creation time:	15. 06. 2019 19:36

#	Modifying user name:	WinNT
#	Modification time:	15. 06. 2019 19:36

#	Program:	/corina/corina34_cracker 3.40 0067  02.08.2006

@<TRIPOS>MOLECULE
ASD01816876
  52   55    0    0    0
SMALL
NO_CHARGES


@<TRIPOS>ATOM
   1 C1            -0.0168     1.3897     0.0097 C.ar    
   2 C2             0.0021    -0.0041     0.0020 C.ar    
   3 C3             1.1796    -0.6877    -0.0129 C.ar    
   4 C4             2.3927     0.0187    -0.0207 C.ar    
   5 C5             2.3768     1.4381    -0.0130 C.ar    
   6 C6             1.1385     2.1078     0.0025 C.ar    
   7 C7             3.6297    -0.6529    -0.0357 C.ar    
   8 C8             4.7711     0.0956    -0.0422 C.ar    
   9 C9             4.6871     1.4959    -0.0340 C.ar    
  10 N10            3.5238     2.1168    -0.0199 N.ar    
  11 C11            5.9353     2.2963    -0.0412 C.2     
  12 N12            5.8725     3.6426    -0.0335 N.am    
  13 O13            7.0146     1.7386    -0.0541 O.2     
  14 C14            7.1057     4.4335    -0.0406 C.3     
  15 C15            6.8364     5.8081     0.5793 C.3     
  16 C16            3.6922    -2.1586    -0.0438 C.3     
  17 C17            3.5760    -2.6586    -1.4607 C.ar    
  18 C18            4.7043    -2.8437    -2.2408 C.ar    
  19 C19            2.3357    -2.9494    -2.0113 C.ar    
  20 C20            2.2645    -3.4062    -3.3125 C.ar    
  21 N21            3.3577    -3.5679    -4.0332 N.ar    
  22 C22            4.5578    -3.3064    -3.5420 C.ar    
  23 C23            8.1091     6.6549     0.4960 C.3     
  24 O24            8.5184     6.7643    -0.8688 O.3     
  25 C25            8.8293     5.5139    -1.4867 C.3     
  26 C26            7.5856     4.6212    -1.4831 C.3     
  27 O27            6.4575     5.6488     1.9479 O.3     
  28 O28            5.6555    -3.4869    -4.3186 O.3     
  29 C29            5.4381    -3.9595    -5.6496 C.3     
  30 H30           -0.9643     1.9080     0.0170 H       
  31 H31           -0.9302    -0.5493     0.0084 H       
  32 H32            1.1803    -1.7677    -0.0184 H       
  33 H33            1.1059     3.1873     0.0090 H       
  34 H34            5.7363    -0.3889    -0.0533 H       
  35 H35            5.0108     4.0879    -0.0231 H       
  36 H36            7.8732     3.9174     0.5362 H       
  37 H37            6.0333     6.3029     0.0332 H       
  38 H38            4.6418    -2.4851     0.3800 H       
  39 H39            2.8717    -2.5595     0.5513 H       
  40 H40            5.6856    -2.6309    -1.8430 H       
  41 H41            1.4358    -2.8202    -1.4282 H       
  42 H42            1.3018    -3.6343    -3.7456 H       
  43 H43            7.9112     7.6490     0.8970 H       
  44 H44            8.9004     6.1798     1.0758 H       
  45 H45            9.1503     5.6860    -2.5141 H       
  46 H46            9.6301     5.0239    -0.9328 H       
  47 H47            7.8324     3.6510    -1.9141 H       
  48 H48            6.7976     5.0921    -2.0708 H       
  49 H49            6.2715     6.4810     2.4039 H       
  50 H50            6.3957    -4.0599    -6.1604 H       
  51 H51            4.9417    -4.9292    -5.6142 H       
  52 H52            4.8111    -3.2498    -6.1892 H       
@<TRIPOS>BOND
   1    1    2 ar
   2    1    6 ar
   3    1   30 1
   4    2    3 ar
   5    2   31 1
   6    3    4 ar
   7    3   32 1
   8    4    5 ar
   9    4    7 ar
  10    5    6 ar
  11    5   10 ar
  12    6   33 1
  13    7    8 ar
  14    7   16 1
  15    8    9 ar
  16    8   34 1
  17    9   10 ar
  18    9   11 1
  19   11   12 am
  20   11   13 2
  21   12   14 1
  22   12   35 1
  23   14   15 1
  24   14   26 1
  25   14   36 1
  26   15   23 1
  27   15   27 1
  28   15   37 1
  29   16   17 1
  30   16   38 1
  31   16   39 1
  32   17   18 ar
  33   17   19 ar
  34   18   22 ar
  35   18   40 1
  36   19   20 ar
  37   19   41 1
  38   20   21 ar
  39   20   42 1
  40   21   22 ar
  41   22   28 1
  42   23   24 1
  43   23   43 1
  44   23   44 1
  45   24   25 1
  46   25   26 1
  47   25   45 1
  48   25   46 1
  49   26   47 1
  50   26   48 1
  51   27   49 1
  52   28   29 1
  53   29   50 1
  54   29   51 1
  55   29   52 1

#	End of record

