#	Name: ASD01948024
#	Creating user name:	WinNT
#	Creation time:	15. 06. 2019 20:13

#	Modifying user name:	WinNT
#	Modification time:	15. 06. 2019 20:13

#	Program:	/corina/corina34_cracker 3.40 0067  02.08.2006

@<TRIPOS>MOLECULE
ASD01948024
  48   51    0    0    0
SMALL
NO_CHARGES


@<TRIPOS>ATOM
   1 C1            -1.1400     1.6910    -0.2604 C.2     
   2 C2            -0.9310     0.4566    -0.8247 C.2     
   3 C3             0.3424    -0.1242    -0.7984 C.2     
   4 C4             1.3869     0.5666    -0.1941 C.2     
   5 C5             1.1346     1.8151     0.3665 C.2     
   6 N6            -0.1038     2.3508     0.3264 N.am    
   7 N7            -2.3162     2.4089    -0.2005 N.pl3   
   8 C8            -2.0759     3.6775     0.4947 C.3     
   9 C9            -0.5812     3.6414     0.8516 C.3     
  10 O10            2.0435     2.4327     0.9006 O.2     
  11 N11           -2.0566    -0.2628    -1.4629 N.pl3   
  12 O12           -2.1965    -0.2243    -2.6722 O.2     
  13 O13           -2.8427    -0.8931    -0.7785 O.2     
  14 C14            2.7709    -0.0278    -0.1466 C.3     
  15 N15            0.5587    -1.3691    -1.3657 N.pl3   
  16 C16           -0.0915    -2.4957    -0.8497 C.ar    
  17 C17            0.0098    -3.7196    -1.5034 C.ar    
  18 C18           -0.6337    -4.8302    -0.9901 C.ar    
  19 C19           -1.3777    -4.7244     0.1718 C.ar    
  20 C20           -1.4796    -3.5087     0.8231 C.ar    
  21 C21           -0.8342    -2.3959     0.3185 C.ar    
  22 I22           -2.3525    -6.4096     0.9458 I       
  23 F23            0.7355    -3.8224    -2.6383 F       
  24 C24           -3.6037     1.9727    -0.7467 C.3     
  25 C25           -3.9106     2.7567    -1.9966 C.ar    
  26 C26           -3.3659     2.3695    -3.2067 C.ar    
  27 C27           -3.6474     3.0887    -4.3531 C.ar    
  28 C28           -4.4740     4.1949    -4.2896 C.ar    
  29 C29           -5.0194     4.5816    -3.0797 C.ar    
  30 C30           -4.7414     3.8598    -1.9340 C.ar    
  31 H31           -2.2869     4.5191    -0.1651 H       
  32 H32           -2.6841     3.7382     1.3972 H       
  33 H33           -0.4456     3.6853     1.9323 H       
  34 H34           -0.0568     4.4657     0.3682 H       
  35 H35            3.2976     0.2033    -1.0725 H       
  36 H36            3.3181     0.3925     0.6973 H       
  37 H37            2.6982    -1.1091    -0.0301 H       
  38 H38            1.1609    -1.4601    -2.1207 H       
  39 H39           -0.5560    -5.7810    -1.4964 H       
  40 H40           -2.0611    -3.4298     1.7297 H       
  41 H41           -0.9113    -1.4480     0.8305 H       
  42 H42           -3.5554     0.9106    -0.9868 H       
  43 H43           -4.3878     2.1433    -0.0091 H       
  44 H44           -2.7201     1.5053    -3.2563 H       
  45 H45           -3.2213     2.7866    -5.2984 H       
  46 H46           -4.6934     4.7572    -5.1852 H       
  47 H47           -5.6649     5.4460    -3.0300 H       
  48 H48           -5.1704     4.1598    -0.9894 H       
@<TRIPOS>BOND
   1    1    2 2
   2    1    6 1
   3    1    7 1
   4    2    3 1
   5    2   11 1
   6    3    4 2
   7    3   15 1
   8    4    5 1
   9    4   14 1
  10    5    6 am
  11    5   10 2
  12    6    9 1
  13    7    8 1
  14    7   24 1
  15    8    9 1
  16    8   31 1
  17    8   32 1
  18    9   33 1
  19    9   34 1
  20   11   12 2
  21   11   13 2
  22   14   35 1
  23   14   36 1
  24   14   37 1
  25   15   16 1
  26   15   38 1
  27   16   17 ar
  28   16   21 ar
  29   17   18 ar
  30   17   23 1
  31   18   19 ar
  32   18   39 1
  33   19   20 ar
  34   19   22 1
  35   20   21 ar
  36   20   40 1
  37   21   41 1
  38   24   25 1
  39   24   42 1
  40   24   43 1
  41   25   26 ar
  42   25   30 ar
  43   26   27 ar
  44   26   44 1
  45   27   28 ar
  46   27   45 1
  47   28   29 ar
  48   28   46 1
  49   29   30 ar
  50   29   47 1
  51   30   48 1

#	End of record

