#	Name: ASD05430233
#	Creating user name:	WinNT
#	Creation time:	15. 06. 2019 21:00

#	Modifying user name:	WinNT
#	Modification time:	15. 06. 2019 21:00

#	Program:	/corina/corina34_cracker 3.40 0067  02.08.2006

@<TRIPOS>MOLECULE
ASD05430233
  66   72    0    0    0
SMALL
NO_CHARGES


@<TRIPOS>ATOM
   1 C1            -0.3381    -0.4989    -2.1325 C.ar    
   2 C2            -0.1906    -1.2389    -0.9674 C.ar    
   3 C3            -1.3174    -1.8265    -0.3822 C.ar    
   4 C4            -2.5583    -1.6752    -0.9523 C.ar    
   5 C5            -2.7036    -0.9292    -2.1268 C.ar    
   6 C6            -1.5790    -0.3366    -2.7090 C.ar    
   7 C7            -4.5381    -3.1287    -2.1509 C.3     
   8 C8            -4.9256    -1.7692    -2.6893 C.2     
   9 C9            -4.0306    -0.7651    -2.7418 C.2     
  10 C10           -5.5080    -4.1847    -2.6890 C.3     
  11 C11           -6.1646    -3.8667    -4.0377 C.3     
  12 N12           -6.8748    -2.5930    -3.9216 N.pl3   
  13 C13           -6.3092    -1.5749    -3.1549 C.2     
  14 C14           -8.1465    -2.3442    -4.5911 C.3     
  15 C15           -9.0358    -1.4937    -3.6847 C.3     
  16 O16           -8.3290    -0.3326    -3.2583 O.3     
  17 N17           -6.9915    -0.5168    -2.8579 N.2     
  18 C18           -5.1896    -5.6510    -2.3911 C.3     
  19 C19           -6.3447    -4.9568    -1.6668 C.3     
  20 C20            1.0208     0.0190    -2.5482 C.3     
  21 C21            1.9825    -0.5147    -1.4741 C.3     
  22 N22            1.1406    -1.2756    -0.5475 N.am    
  23 C23            1.5862    -1.9175     0.5507 C.2     
  24 O24            0.8013    -2.2669     1.4110 O.2     
  25 N25            2.9018    -2.1720     0.6952 N.am    
  26 C26            3.3462    -3.2501     1.5820 C.3     
  27 C27            3.8874    -1.3706    -0.0346 C.3     
  28 C28           -7.9414    -1.6775    -5.9159 C.ar    
  29 C29           -8.4594    -2.5084    -6.9135 C.ar    
  30 N30           -8.9931    -3.6718    -6.3861 N.pl3   
  31 C31           -8.8467    -3.6712    -4.9228 C.3     
  32 C32           -7.3558    -0.4590    -6.2085 C.ar    
  33 C33           -7.3007    -0.0859    -7.5455 C.ar    
  34 C34           -7.8100    -0.8981    -8.5407 C.ar    
  35 C35           -8.3981    -2.1224    -8.2561 C.ar    
  36 F36           -7.7324    -0.4895    -9.8261 F       
  37 H37           -1.2109    -2.4037     0.5243 H       
  38 H38           -3.4223    -2.1329    -0.4934 H       
  39 H39           -1.6817     0.2414    -3.6155 H       
  40 H40           -3.5241    -3.3704    -2.4696 H       
  41 H41           -4.5834    -3.1148    -1.0619 H       
  42 H42           -4.2863     0.1610    -3.2352 H       
  43 H43           -5.3980    -3.7894    -4.8088 H       
  44 H44           -6.8697    -4.6566    -4.2968 H       
  45 H45           -9.9284    -1.1927    -4.2332 H       
  46 H46           -9.3291    -2.0790    -2.8133 H       
  47 H47           -5.4436    -6.3863    -3.1546 H       
  48 H48           -4.2892    -5.8634    -1.8147 H       
  49 H49           -6.2043    -4.7125    -0.6139 H       
  50 H50           -7.3587    -5.2354    -1.9538 H       
  51 H51            1.2925    -0.3706    -3.5292 H       
  52 H52            1.0263     1.1089    -2.5559 H       
  53 H53            2.7308    -1.1655    -1.9264 H       
  54 H54            2.4649     0.3128    -0.9539 H       
  55 H55            3.4144    -4.1800     1.0176 H       
  56 H56            4.3247    -3.0021     1.9933 H       
  57 H57            2.6302    -3.3701     2.3951 H       
  58 H58            3.4562    -0.4003    -0.2808 H       
  59 H59            4.7717    -1.2282     0.5866 H       
  60 H60            4.1677    -1.8872    -0.9526 H       
  61 H61           -9.4030    -4.3817    -6.9046 H       
  62 H62           -8.2326    -4.5133    -4.6035 H       
  63 H63           -9.8253    -3.7126    -4.4445 H       
  64 H64           -6.9585     0.1757    -5.4302 H       
  65 H65           -6.8508     0.8589    -7.8126 H       
  66 H66           -8.7939    -2.7512    -9.0400 H       
@<TRIPOS>BOND
   1    1    2 ar
   2    1   20 1
   3    1    6 ar
   4    2    3 ar
   5    2   22 1
   6    3    4 ar
   7    3   37 1
   8    4    5 ar
   9    4   38 1
  10    5    6 ar
  11    5    9 1
  12    6   39 1
  13    7    8 1
  14    7   10 1
  15    7   40 1
  16    7   41 1
  17    8    9 2
  18    8   13 1
  19    9   42 1
  20   10   11 1
  21   10   18 1
  22   10   19 1
  23   11   12 1
  24   11   43 1
  25   11   44 1
  26   12   13 1
  27   12   14 1
  28   13   17 2
  29   14   15 1
  30   14   28 1
  31   14   31 1
  32   15   16 1
  33   15   45 1
  34   15   46 1
  35   16   17 1
  36   18   19 1
  37   18   47 1
  38   18   48 1
  39   19   49 1
  40   19   50 1
  41   20   21 1
  42   20   51 1
  43   20   52 1
  44   21   22 1
  45   21   53 1
  46   21   54 1
  47   22   23 am
  48   23   24 2
  49   23   25 am
  50   25   26 1
  51   25   27 1
  52   26   55 1
  53   26   56 1
  54   26   57 1
  55   27   58 1
  56   27   59 1
  57   27   60 1
  58   28   29 ar
  59   28   32 ar
  60   29   30 1
  61   29   35 ar
  62   30   31 1
  63   30   61 1
  64   31   62 1
  65   31   63 1
  66   32   33 ar
  67   32   64 1
  68   33   34 ar
  69   33   65 1
  70   34   35 ar
  71   34   36 1
  72   35   66 1

#	End of record

