#	Name: ASD02690085
#	Creating user name:	WinNT
#	Creation time:	15. 06. 2019 20:26

#	Modifying user name:	WinNT
#	Modification time:	15. 06. 2019 20:26

#	Program:	/corina/corina34_cracker 3.40 0067  02.08.2006

@<TRIPOS>MOLECULE
ASD02690085
  47   48    0    0    0
SMALL
NO_CHARGES


@<TRIPOS>ATOM
   1 Cl1            0.0000     0.0000     0.0000 Cl      
   2 H2             0.0000     1.3700     0.0000 H       
   3 O3            13.3682     6.3700     6.2676 O.2     
   4 C4            13.3517     7.5827     6.2743 C.2     
   5 C5            14.6464     8.3538     6.2661 C.3     
   6 C6            15.8227     7.3755     6.2496 C.3     
   7 N7            17.0847     8.1273     6.2416 N.3     
   8 C8            17.2611     8.8729     7.4943 C.3     
   9 C9            18.5078     9.7547     7.3935 C.3     
  10 C10           19.7306     8.8728     7.1261 C.3     
  11 C11           19.5009     8.0710     5.8420 C.3     
  12 C12           18.2254     7.2379     5.9878 C.3     
  13 C13           12.0689     8.3002     6.2843 C.ar    
  14 C14           12.0486     9.7001     6.2862 C.ar    
  15 C15           10.8509    10.3672     6.2956 C.ar    
  16 C16            9.6525     9.6519     6.3036 C.ar    
  17 C17            9.6702     8.2564     6.3022 C.ar    
  18 C18           10.8654     7.5849     6.2861 C.ar    
  19 C19            8.3588    10.3756     6.3142 C.ar    
  20 C20            8.3367    11.7697     6.3103 C.ar    
  21 C21            7.1294    12.4378     6.3198 C.ar    
  22 C22            5.9425    11.7272     6.3331 C.ar    
  23 C23            5.9582    10.3439     6.3370 C.ar    
  24 C24            7.1594     9.6648     6.3223 C.ar    
  25 H25           14.6872     8.9860     5.3790 H       
  26 H26           14.7042     8.9764     7.1589 H       
  27 H27           15.7819     6.7434     7.1366 H       
  28 H28           15.7649     6.7529     5.3568 H       
  29 H29           16.3866     9.4991     7.6705 H       
  30 H30           17.3780     8.1719     8.3208 H       
  31 H31           18.3858    10.4652     6.5759 H       
  32 H32           18.6472    10.2962     8.3291 H       
  33 H33           20.6142     9.5005     7.0104 H       
  34 H34           19.8758     8.1883     7.9618 H       
  35 H35           19.3945     8.7550     5.0000 H       
  36 H36           20.3498     7.4095     5.6692 H       
  37 H37           18.3378     6.5446     6.8213 H       
  38 H38           18.0512     6.6768     5.0698 H       
  39 H39           12.9757    10.2540     6.2807 H       
  40 H40           10.8348    11.4471     6.2970 H       
  41 H41            8.7416     7.7050     6.3092 H       
  42 H42           10.8786     6.5050     6.2801 H       
  43 H43            9.2627    12.3255     6.3003 H       
  44 H44            7.1110    13.5177     6.3171 H       
  45 H45            5.0000    12.2545     6.3408 H       
  46 H46            5.0285     9.7944     6.3474 H       
  47 H47            7.1704     8.5848     6.3209 H       
@<TRIPOS>BOND
   1    1    2 1
   2    3    4 2
   3    4    5 1
   4    4   13 1
   5    5    6 1
   6    5   25 1
   7    5   26 1
   8    6    7 1
   9    6   27 1
  10    6   28 1
  11    7   12 1
  12    7    8 1
  13    8    9 1
  14    8   29 1
  15    8   30 1
  16    9   10 1
  17    9   31 1
  18    9   32 1
  19   10   11 1
  20   10   33 1
  21   10   34 1
  22   11   12 1
  23   11   35 1
  24   11   36 1
  25   12   37 1
  26   12   38 1
  27   13   18 ar
  28   13   14 ar
  29   14   15 ar
  30   14   39 1
  31   15   16 ar
  32   15   40 1
  33   16   17 ar
  34   16   19 1
  35   17   18 ar
  36   17   41 1
  37   18   42 1
  38   19   24 ar
  39   19   20 ar
  40   20   21 ar
  41   20   43 1
  42   21   22 ar
  43   21   44 1
  44   22   23 ar
  45   22   45 1
  46   23   24 ar
  47   23   46 1
  48   24   47 1

#	End of record

