#	Name: ASD01840165
#	Creating user name:	WinNT
#	Creation time:	15. 06. 2019 19:37

#	Modifying user name:	WinNT
#	Modification time:	15. 06. 2019 19:37

#	Program:	/corina/corina34_cracker 3.40 0067  02.08.2006

@<TRIPOS>MOLECULE
ASD01840165
  45   48    0    0    0
SMALL
NO_CHARGES


@<TRIPOS>ATOM
   1 C1            -1.2401     1.4485     0.1725 C.3     
   2 C2            -0.7573    -0.0103     0.2664 C.3     
   3 N3            -0.3533    -0.5820    -1.0205 N.am    
   4 C4            -0.3947    -1.9160    -1.2081 C.2     
   5 C5             0.0085    -2.4865    -2.4925 C.2     
   6 O6            -0.7678    -2.6459    -0.3079 O.2     
   7 C7             0.0023    -3.8120    -2.7790 C.2     
   8 C8             0.4470    -4.1281    -4.1238 C.ar    
   9 C9             0.7936    -2.9826    -4.8529 C.ar    
  10 S10            0.5561    -1.5467    -3.8669 S.3     
  11 C11            0.5733    -5.3773    -4.7732 C.ar    
  12 C12            1.0267    -5.3880    -6.0740 C.ar    
  13 N13            1.3302    -4.2542    -6.6822 N.ar    
  14 N14            1.2212    -3.1132    -6.1108 N.ar    
  15 C15            1.1776    -6.6967    -6.8059 C.3     
  16 C16            0.2229    -6.6595    -4.0632 C.3     
  17 N17           -0.3942    -4.7806    -1.8668 N.pl3   
  18 C18            0.4173     0.5372     1.0975 C.3     
  19 N19            0.1653     1.8242     0.4207 N.am    
  20 C20            0.9168     2.9076     0.1414 C.2     
  21 O21            2.0671     2.9654     0.5289 O.2     
  22 C22            0.3405     4.0279    -0.6380 C.ar    
  23 C23            1.1428     5.0858    -1.0762 C.ar    
  24 C24            0.5640     6.1101    -1.8003 C.ar    
  25 N25           -0.7244     6.0984    -2.0782 N.ar    
  26 C26           -1.5161     5.1208    -1.6844 C.ar    
  27 C27           -1.0196     4.0539    -0.9607 C.ar    
  28 H28           -1.6016     1.7287    -0.8169 H       
  29 H29           -1.9204     1.7385     0.9732 H       
  30 H30           -1.4291    -0.6596     0.8277 H       
  31 H31           -0.0560    -0.0004    -1.7376 H       
  32 H32            0.2465    -6.9348    -7.3201 H       
  33 H33            1.9843    -6.6146    -7.5343 H       
  34 H34            1.4111    -7.4871    -6.0926 H       
  35 H35           -0.8491    -6.8389    -4.1451 H       
  36 H36            0.7657    -7.4874    -4.5194 H       
  37 H37            0.4986    -6.5797    -3.0117 H       
  38 H38           -0.4138    -4.5751    -0.9190 H       
  39 H39           -0.6515    -5.6628    -2.1773 H       
  40 H40            0.2239     0.5595     2.1700 H       
  41 H41            1.3791     0.0898     0.8467 H       
  42 H42            2.1991     5.1021    -0.8518 H       
  43 H43            1.1754     6.9319    -2.1429 H       
  44 H44           -2.5662     5.1521    -1.9347 H       
  45 H45           -1.6731     3.2539    -0.6455 H       
@<TRIPOS>BOND
   1    1    2 1
   2    1   19 1
   3    1   28 1
   4    1   29 1
   5    2    3 1
   6    2   18 1
   7    2   30 1
   8    3    4 am
   9    3   31 1
  10    4    5 1
  11    4    6 2
  12    5    7 2
  13    5   10 1
  14    7    8 1
  15    7   17 1
  16    8    9 ar
  17    8   11 ar
  18    9   10 1
  19    9   14 ar
  20   11   12 ar
  21   11   16 1
  22   12   13 ar
  23   12   15 1
  24   13   14 ar
  25   15   32 1
  26   15   33 1
  27   15   34 1
  28   16   35 1
  29   16   36 1
  30   16   37 1
  31   17   38 1
  32   17   39 1
  33   18   19 1
  34   18   40 1
  35   18   41 1
  36   19   20 am
  37   20   21 2
  38   20   22 1
  39   22   23 ar
  40   22   27 ar
  41   23   24 ar
  42   23   42 1
  43   24   25 ar
  44   24   43 1
  45   25   26 ar
  46   26   27 ar
  47   26   44 1
  48   27   45 1

#	End of record

