#	Name: ASD01940475
#	Creating user name:	WinNT
#	Creation time:	15. 06. 2019 20:12

#	Modifying user name:	WinNT
#	Modification time:	15. 06. 2019 20:12

#	Program:	/corina/corina34_cracker 3.40 0067  02.08.2006

@<TRIPOS>MOLECULE
ASD01940475
  26   26    0    0    0
SMALL
NO_CHARGES


@<TRIPOS>ATOM
   1 C1            -1.2214     0.6314     0.3346 C.2     
   2 C2            -0.8343    -0.7886     0.2471 C.ar    
   3 C3             0.5154    -1.1547     0.3124 C.ar    
   4 C4             0.8700    -2.4873     0.2302 C.ar    
   5 C5            -0.1071    -3.4585     0.0836 C.ar    
   6 C6            -1.4457    -3.1002     0.0180 C.ar    
   7 C7            -1.8135    -1.7755     0.1045 C.ar    
   8 O8            -0.3682     1.4868     0.4636 O.2     
   9 O9            -2.5209     0.9809     0.2659 O.3     
  10 F10            0.2453    -4.7603     0.0037 F       
  11 F11            1.4682    -0.2076     0.4549 F       
  12 C12            2.3219    -2.8852     0.2996 C.3     
  13 O13            2.5255    -4.0787    -0.4594 O.3     
  14 C14            3.7697    -4.7302    -0.1955 C.3     
  15 O15            3.1296    -1.8357    -0.2372 O.3     
  16 C16            4.4912    -1.8711     0.1950 C.3     
  17 H17           -2.2021    -3.8625    -0.0971 H       
  18 H18           -2.8566    -1.4996     0.0576 H       
  19 H19           -2.7257     1.9239     0.3279 H       
  20 H20            2.6006    -3.0631     1.3382 H       
  21 H21            3.7049    -5.7745    -0.5009 H       
  22 H22            4.5642    -4.2366    -0.7550 H       
  23 H23            3.9888    -4.6765     0.8709 H       
  24 H24            4.5255    -1.9436     1.2820 H       
  25 H25            4.9890    -2.7363    -0.2428 H       
  26 H26            4.9976    -0.9603    -0.1245 H       
@<TRIPOS>BOND
   1    1    2 1
   2    1    8 2
   3    1    9 1
   4    2    3 ar
   5    2    7 ar
   6    3    4 ar
   7    3   11 1
   8    4    5 ar
   9    4   12 1
  10    5    6 ar
  11    5   10 1
  12    6    7 ar
  13    6   17 1
  14    7   18 1
  15    9   19 1
  16   12   13 1
  17   12   15 1
  18   12   20 1
  19   13   14 1
  20   14   21 1
  21   14   22 1
  22   14   23 1
  23   15   16 1
  24   16   24 1
  25   16   25 1
  26   16   26 1

#	End of record

