#	Name: ASD01900412
#	Creating user name:	WinNT
#	Creation time:	15. 06. 2019 19:51

#	Modifying user name:	WinNT
#	Modification time:	15. 06. 2019 19:51

#	Program:	/corina/corina34_cracker 3.40 0067  02.08.2006

@<TRIPOS>MOLECULE
ASD01900412
  22   24    0    0    0
SMALL
NO_CHARGES


@<TRIPOS>ATOM
   1 S1            -0.0211     1.7054     0.0114 S.3     
   2 C2             0.0021    -0.0041     0.0020 C.2     
   3 N3             1.2261    -0.4332    -0.0120 N.2     
   4 C4             2.1792     0.4810    -0.0162 C.2     
   5 C5             1.7401     1.7403    -0.0052 C.2     
   6 N6            -1.1234    -0.8137     0.0084 N.pl3   
   7 C7            -2.0747    -3.1828     0.0048 C.ar    
   8 C8            -1.4627    -4.4507    -0.0079 C.ar    
   9 C9            -2.2663    -5.5903    -0.0118 C.ar    
  10 C10           -3.6372    -5.4231    -0.0031 C.ar    
  11 C11           -4.1727    -4.1418     0.0093 C.ar    
  12 N12           -3.4015    -3.0784     0.0132 N.ar    
  13 N13            0.1431    -2.8666    -0.0058 N.2     
  14 N14           -0.1088    -4.2424    -0.0142 N.pl3   
  15 C15           -0.9838    -2.2054    -0.0004 C.2     
  16 H16            3.2294     0.2292    -0.0270 H       
  17 H17            2.3568     2.6269    -0.0069 H       
  18 H18           -2.0076    -0.4150     0.0190 H       
  19 H19           -1.8283    -6.5774    -0.0218 H       
  20 H20           -4.2891    -6.2841    -0.0062 H       
  21 H21           -5.2455    -4.0171     0.0157 H       
  22 H22            0.5673    -4.9379    -0.0227 H       
@<TRIPOS>BOND
   1    1    2 1
   2    1    5 1
   3    2    3 2
   4    2    6 1
   5    3    4 1
   6    4    5 2
   7    4   16 1
   8    5   17 1
   9    6   15 1
  10    6   18 1
  11    7    8 ar
  12    7   12 ar
  13    7   15 1
  14    8    9 ar
  15    8   14 1
  16    9   10 ar
  17    9   19 1
  18   10   11 ar
  19   10   20 1
  20   11   12 ar
  21   11   21 1
  22   13   14 1
  23   13   15 2
  24   14   22 1

#	End of record

