#	Name: ASD01180146
#	Creating user name:	WinNT
#	Creation time:	15. 06. 2019 19:06

#	Modifying user name:	WinNT
#	Modification time:	15. 06. 2019 19:06

#	Program:	/corina/corina34_cracker 3.40 0067  02.08.2006

@<TRIPOS>MOLECULE
ASD01180146
  67   70    0    0    0
SMALL
NO_CHARGES


@<TRIPOS>ATOM
   1 C1             0.7493     1.4196     0.7522 C.2     
   2 C2             0.6696    -0.0818     0.6498 C.3     
   3 C3             2.0787    -0.6580     0.4962 C.3     
   4 O4             1.8229     1.9721     0.7070 O.2     
   5 O5            -0.3728     2.1435     0.8881 O.3     
   6 C6             3.1275    -2.8441     0.2547 C.2     
   7 C7             3.0493    -4.3171     0.1542 C.ar    
   8 C8             4.2138    -5.0724     0.0071 C.ar    
   9 C9             4.1339    -6.4465    -0.0856 C.ar    
  10 C10            2.9029    -7.0760    -0.0335 C.ar    
  11 C11            1.7447    -6.3332     0.1122 C.ar    
  12 C12            1.8111    -4.9588     0.2118 C.ar    
  13 O13            4.2075    -2.2883     0.2092 O.2     
  14 N14            2.0012    -2.1176     0.3967 N.am    
  15 C15            2.8232    -8.5774    -0.1364 C.3     
  16 N16            1.8143    -9.0782     0.8004 N.pl3   
  17 N17            3.7872    -9.2132     3.8448 N.ar    
  18 C18            3.4333    -8.9903     2.6035 C.ar    
  19 C19            2.1599    -9.3296     2.1308 C.ar    
  20 C20            1.2466    -9.9141     2.9873 C.ar    
  21 C21            1.6422   -10.1463     4.3170 C.ar    
  22 C22            0.7679   -10.7361     5.2448 C.ar    
  23 C23            1.1844   -10.9456     6.5237 C.ar    
  24 C24            2.4700   -10.5812     6.9257 C.ar    
  25 C25            3.3434   -10.0067     6.0507 C.ar    
  26 C26            2.9490    -9.7753     4.7219 C.ar    
  27 F27            2.8550   -10.8006     8.2019 F       
  28 C28            2.4345    -8.9709    -1.5629 C.3     
  29 C29            2.2201   -10.4824    -1.7482 C.3     
  30 C30            1.0222   -10.1230    -2.6432 C.3     
  31 C31            0.9356    -8.8013    -1.8620 C.3     
  32 C32            1.3911    -9.9409    -4.1169 C.3     
  33 C33           -0.1894   -11.0351    -2.4408 C.3     
  34 C34           -0.2205     3.5845     0.9807 C.3     
  35 C35           -1.5975     4.2344     1.1302 C.3     
  36 H36            0.2092    -0.4836     1.5523 H       
  37 H37            0.0687    -0.3555    -0.2175 H       
  38 H38            2.5391    -0.2562    -0.4063 H       
  39 H39            2.6796    -0.3844     1.3634 H       
  40 H40            5.1752    -4.5821    -0.0345 H       
  41 H41            5.0341    -7.0321    -0.1995 H       
  42 H42            0.7870    -6.8307     0.1522 H       
  43 H43            0.9068    -4.3804     0.3300 H       
  44 H44            1.1393    -2.5611     0.4329 H       
  45 H45            3.7930    -9.0104     0.1085 H       
  46 H46            0.9064    -9.2352     0.4972 H       
  47 H47            4.1416    -8.5341     1.9278 H       
  48 H48            0.2583   -10.1844     2.6459 H       
  49 H49           -0.2296   -11.0216     4.9452 H       
  50 H50            0.5114   -11.3992     7.2362 H       
  51 H51            4.3351    -9.7307     6.3775 H       
  52 H52            3.0845    -8.5265    -2.3166 H       
  53 H53            3.0317   -10.9762    -2.2825 H       
  54 H54            1.9398   -10.9994    -0.8305 H       
  55 H55            0.3042    -8.8587    -0.9753 H       
  56 H56            0.7103    -7.9380    -2.4881 H       
  57 H57            1.8183   -10.8670    -4.5016 H       
  58 H58            0.4967    -9.6891    -4.6868 H       
  59 H59            2.1210    -9.1370    -4.2121 H       
  60 H60           -0.5252   -10.9689    -1.4060 H       
  61 H61           -0.9950   -10.7218    -3.1049 H       
  62 H62            0.0887   -12.0644    -2.6675 H       
  63 H63            0.3932     3.8300     1.8474 H       
  64 H64            0.2613     3.9578     0.0770 H       
  65 H65           -2.2112     3.9889     0.2635 H       
  66 H66           -2.0792     3.8611     2.0339 H       
  67 H67           -1.4831     5.3161     1.1998 H       
@<TRIPOS>BOND
   1    1    2 1
   2    1    4 2
   3    1    5 1
   4    2    3 1
   5    2   36 1
   6    2   37 1
   7    3   14 1
   8    3   38 1
   9    3   39 1
  10    5   34 1
  11    6    7 1
  12    6   13 2
  13    6   14 am
  14    7    8 ar
  15    7   12 ar
  16    8    9 ar
  17    8   40 1
  18    9   10 ar
  19    9   41 1
  20   10   11 ar
  21   10   15 1
  22   11   12 ar
  23   11   42 1
  24   12   43 1
  25   14   44 1
  26   15   16 1
  27   15   28 1
  28   15   45 1
  29   16   19 1
  30   16   46 1
  31   17   18 ar
  32   17   26 ar
  33   18   19 ar
  34   18   47 1
  35   19   20 ar
  36   20   21 ar
  37   20   48 1
  38   21   22 ar
  39   21   26 ar
  40   22   23 ar
  41   22   49 1
  42   23   24 ar
  43   23   50 1
  44   24   25 ar
  45   24   27 1
  46   25   26 ar
  47   25   51 1
  48   28   29 1
  49   28   31 1
  50   28   52 1
  51   29   30 1
  52   29   53 1
  53   29   54 1
  54   30   31 1
  55   30   32 1
  56   30   33 1
  57   31   55 1
  58   31   56 1
  59   32   57 1
  60   32   58 1
  61   32   59 1
  62   33   60 1
  63   33   61 1
  64   33   62 1
  65   34   35 1
  66   34   63 1
  67   34   64 1
  68   35   65 1
  69   35   66 1
  70   35   67 1

#	End of record

