#	Name: ASD02198074
#	Creating user name:	WinNT
#	Creation time:	15. 06. 2019 20:18

#	Modifying user name:	WinNT
#	Modification time:	15. 06. 2019 20:18

#	Program:	/corina/corina34_cracker 3.40 0067  02.08.2006

@<TRIPOS>MOLECULE
ASD02198074
  46   49    0    0    0
SMALL
NO_CHARGES


@<TRIPOS>ATOM
   1 C1            -0.0156     1.3776    -0.0295 C.2     
   2 C2             0.0076    -0.0009    -0.0156 C.2     
   3 C3            -1.1778    -0.8009     0.0575 C.1     
   4 S4             1.5647     2.0108    -0.1227 S.3     
   5 C5             2.2773     0.4057    -0.1440 C.2     
   6 C6             1.2892    -0.5452    -0.0795 C.2     
   7 C7             3.6606     0.1338    -0.2169 C.2     
   8 C8             4.6245     1.2408    -0.2817 C.2     
   9 O9             4.0559    -1.0211    -0.2262 O.2     
  10 N10            1.5407    -1.9098    -0.0783 N.pl3   
  11 N11           -1.1603     2.1397     0.0193 N.pl3   
  12 N12           -2.1182    -1.4356     0.1155 N.1     
  13 C13            5.9808     1.0996    -0.3545 C.2     
  14 C14           -1.0700     3.5317     0.1321 C.ar    
  15 C15           -0.0731     4.1023     0.9129 C.ar    
  16 C16            0.0153     5.4759     1.0236 C.ar    
  17 C17           -0.8915     6.2858     0.3556 C.ar    
  18 C18           -1.8875     5.7167    -0.4244 C.ar    
  19 C19           -1.9736     4.3435    -0.5413 C.ar    
  20 C20            6.6771     2.2775    -0.4059 C.2     
  21 C21            5.9036     3.4003    -0.3759 C.2     
  22 S22            4.2066     2.9488    -0.2847 S.3     
  23 C23            6.4137     4.7858    -0.4193 C.ar    
  24 C24            5.5177     5.8553    -0.3820 C.ar    
  25 C25            6.0114     7.1472    -0.4230 C.ar    
  26 C26            7.3851     7.3298    -0.4999 C.ar    
  27 C27            8.2165     6.2247    -0.5333 C.ar    
  28 N28            7.7226     5.0047    -0.4880 N.ar    
  29 C29           -1.7707     8.4111    -0.2488 C.3     
  30 O30           -0.8043     7.6383     0.4659 O.3     
  31 H31            2.4535    -2.2347    -0.1245 H       
  32 H32            0.8038    -2.5387    -0.0311 H       
  33 H33           -2.0299     1.7121    -0.0244 H       
  34 H34            6.4661     0.1349    -0.3701 H       
  35 H35            0.6326     3.4720     1.4335 H       
  36 H36            0.7904     5.9198     1.6307 H       
  37 H37           -2.5931     6.3480    -0.9441 H       
  38 H38           -2.7489     3.9006    -1.1489 H       
  39 H39            7.7549     2.3145    -0.4651 H       
  40 H40            4.4542     5.6770    -0.3223 H       
  41 H41            5.3426     7.9948    -0.3960 H       
  42 H42            7.8013     8.3259    -0.5338 H       
  43 H43            9.2858     6.3644    -0.5932 H       
  44 H44           -1.6897     8.1984    -1.3148 H       
  45 H45           -2.7712     8.1529     0.0982 H       
  46 H46           -1.5883     9.4716    -0.0751 H       
@<TRIPOS>BOND
   1    1    2 2
   2    1    4 1
   3    1   11 1
   4    2    3 1
   5    2    6 1
   6    3   12 3
   7    4    5 1
   8    5    6 2
   9    5    7 1
  10    6   10 1
  11    7    8 1
  12    7    9 2
  13    8   13 2
  14    8   22 1
  15   10   31 1
  16   10   32 1
  17   11   14 1
  18   11   33 1
  19   13   20 1
  20   13   34 1
  21   14   15 ar
  22   14   19 ar
  23   15   16 ar
  24   15   35 1
  25   16   17 ar
  26   16   36 1
  27   17   18 ar
  28   17   30 1
  29   18   19 ar
  30   18   37 1
  31   19   38 1
  32   20   21 2
  33   20   39 1
  34   21   22 1
  35   21   23 1
  36   23   24 ar
  37   23   28 ar
  38   24   25 ar
  39   24   40 1
  40   25   26 ar
  41   25   41 1
  42   26   27 ar
  43   26   42 1
  44   27   28 ar
  45   27   43 1
  46   29   30 1
  47   29   44 1
  48   29   45 1
  49   29   46 1

#	End of record

