#	Name: ASD01903148
#	Creating user name:	WinNT
#	Creation time:	15. 06. 2019 19:54

#	Modifying user name:	WinNT
#	Modification time:	15. 06. 2019 19:54

#	Program:	/corina/corina34_cracker 3.40 0067  02.08.2006

@<TRIPOS>MOLECULE
ASD01903148
  53   56    0    0    0
SMALL
NO_CHARGES


@<TRIPOS>ATOM
   1 C1             1.2685    -1.6627     0.4122 C.ar    
   2 C2             0.3828    -1.0440    -0.4559 C.ar    
   3 C3             0.7827     0.0950    -1.1368 C.ar    
   4 N4             1.9879     0.5936    -0.9696 N.ar    
   5 C5             2.8662     0.0317    -0.1479 C.ar    
   6 C6             2.5323    -1.1151     0.5687 C.ar    
   7 C7             4.2126     0.6293     0.0083 C.2     
   8 N8             4.5416     1.7389    -0.6824 N.am    
   9 O9             5.0205     0.1191     0.7591 O.2     
  10 C10            5.7759     2.3584    -0.4635 C.ar    
  11 C11            6.8993     1.5917    -0.1816 C.ar    
  12 C12            8.1168     2.2068     0.0342 C.ar    
  13 C13            8.2183     3.5844    -0.0301 C.ar    
  14 C14            7.1018     4.3507    -0.3100 C.ar    
  15 C15            5.8825     3.7416    -0.5329 C.ar    
  16 S16            9.7736     4.3651     0.2459 S.o2    
  17 O17            9.4913     5.7211     0.5633 O.2     
  18 O18           10.5088     3.5030     1.1035 O.2     
  19 N19           10.5777     4.3813    -1.2017 N.am    
  20 C20           10.9066     3.1759    -1.8333 C.ar    
  21 C21           10.6669     3.0159    -3.1917 C.ar    
  22 C22           10.9909     1.8268    -3.8146 C.ar    
  23 C23           11.5568     0.7913    -3.0826 C.ar    
  24 C24           11.7970     0.9515    -1.7244 C.ar    
  25 C25           11.4778     2.1425    -1.1026 C.ar    
  26 N26           11.8849    -0.4144    -3.7140 N.3     
  27 C27           12.4685    -1.3675    -2.7589 C.3     
  28 C28           12.7563    -2.6891    -3.4763 C.3     
  29 O29           13.6182    -2.4429    -4.5907 O.3     
  30 C30           13.0807    -1.5194    -5.5413 C.3     
  31 C31           12.7961    -0.1861    -4.8449 C.3     
  32 H32            0.9792    -2.5488     0.9576 H       
  33 H33           -0.6092    -1.4458    -0.6006 H       
  34 H34            0.0952     0.5794    -1.8143 H       
  35 H35            3.2480    -1.5713     1.2366 H       
  36 H36            3.9222     2.1077    -1.3314 H       
  37 H37            6.8206     0.5158    -0.1309 H       
  38 H38            8.9906     1.6112     0.2537 H       
  39 H39            7.1843     5.4264    -0.3592 H       
  40 H40            5.0108     4.3406    -0.7515 H       
  41 H41           10.8207     5.2260    -1.6121 H       
  42 H42           10.2268     3.8212    -3.7609 H       
  43 H43           10.8038     1.7020    -4.8709 H       
  44 H44           12.2371     0.1461    -1.1551 H       
  45 H45           11.6645     2.2672    -0.0462 H       
  46 H46           13.3975    -0.9602    -2.3599 H       
  47 H47           11.7667    -1.5415    -1.9433 H       
  48 H48           13.2416    -3.3795    -2.7865 H       
  49 H49           11.8207    -3.1232    -3.8287 H       
  50 H50           13.8005    -1.3640    -6.3450 H       
  51 H51           12.1544    -1.9195    -5.9538 H       
  52 H52           12.3334     0.5024    -5.5519 H       
  53 H53           13.7303     0.2402    -4.4792 H       
@<TRIPOS>BOND
   1    1    2 ar
   2    1    6 ar
   3    1   32 1
   4    2    3 ar
   5    2   33 1
   6    3    4 ar
   7    3   34 1
   8    4    5 ar
   9    5    6 ar
  10    5    7 1
  11    6   35 1
  12    7    8 am
  13    7    9 2
  14    8   10 1
  15    8   36 1
  16   10   11 ar
  17   10   15 ar
  18   11   12 ar
  19   11   37 1
  20   12   13 ar
  21   12   38 1
  22   13   14 ar
  23   13   16 1
  24   14   15 ar
  25   14   39 1
  26   15   40 1
  27   16   17 2
  28   16   18 2
  29   16   19 am
  30   19   20 1
  31   19   41 1
  32   20   21 ar
  33   20   25 ar
  34   21   22 ar
  35   21   42 1
  36   22   23 ar
  37   22   43 1
  38   23   24 ar
  39   23   26 1
  40   24   25 ar
  41   24   44 1
  42   25   45 1
  43   26   27 1
  44   26   31 1
  45   27   28 1
  46   27   46 1
  47   27   47 1
  48   28   29 1
  49   28   48 1
  50   28   49 1
  51   29   30 1
  52   30   31 1
  53   30   50 1
  54   30   51 1
  55   31   52 1
  56   31   53 1

#	End of record

