#	Name: ASD00461008
#	Creating user name:	WinNT
#	Creation time:	15. 06. 2019 18:36

#	Modifying user name:	WinNT
#	Modification time:	15. 06. 2019 18:36

#	Program:	/corina/corina34_cracker 3.40 0067  02.08.2006

@<TRIPOS>MOLECULE
ASD00461008
  40   43    0    0    0
SMALL
NO_CHARGES


@<TRIPOS>ATOM
   1 C1            -0.0164     1.3576     0.0095 C.ar    
   2 C2             0.0021    -0.0041     0.0020 C.ar    
   3 C3             1.1662     2.0840     0.0021 C.ar    
   4 C4             1.2271    -0.7013    -0.0134 C.ar    
   5 C5             2.3773     1.4298    -0.0134 C.ar    
   6 N6             1.4619    -2.0273    -0.0228 N.2     
   7 C7             2.4156     0.0370    -0.0208 C.ar    
   8 C8             2.6799    -2.4184    -0.0365 C.2     
   9 S9             3.7614    -1.0984    -0.0397 S.3     
  10 C10            3.1062    -3.8638    -0.0473 C.3     
  11 O11            2.5106    -4.5444     1.0591 O.3     
  12 C12            2.6530    -4.5194    -1.3533 C.3     
  13 C13            4.6070    -3.9457     0.0615 C.ar    
  14 C14            5.3800    -3.9475    -1.0978 C.ar    
  15 C15            6.7379    -4.0209    -1.0347 C.ar    
  16 C16            7.3726    -4.0956     0.2166 C.ar    
  17 C17            6.5862    -4.0932     1.3959 C.ar    
  18 C18            5.1875    -4.0112     1.2910 C.ar    
  19 C19            1.1448    -4.3269    -1.5240 C.3     
  20 C20            8.7720    -4.1731     0.3217 C.ar    
  21 C21            9.3519    -4.2446     1.5508 C.ar    
  22 C22            8.5786    -4.2422     2.7105 C.ar    
  23 C23            7.2212    -4.1683     2.6475 C.ar    
  24 H24           -0.9625     1.8784     0.0168 H       
  25 H25           -0.9278    -0.5533     0.0083 H       
  26 H26            1.1363     3.1635     0.0082 H       
  27 H27            3.2971     1.9958    -0.0199 H       
  28 H28            2.7544    -4.1815     1.9216 H       
  29 H29            3.1753    -4.0585    -2.1916 H       
  30 H30            2.8823    -5.5846    -1.3238 H       
  31 H31            4.8946    -3.8902    -2.0608 H       
  32 H32            7.3241    -4.0221    -1.9417 H       
  33 H33            4.5757    -4.0084     2.1810 H       
  34 H34            0.6225    -4.7879    -0.6857 H       
  35 H35            0.9155    -3.2617    -1.5536 H       
  36 H36            0.8219    -4.7940    -2.4545 H       
  37 H37            9.3839    -4.1763    -0.5682 H       
  38 H38           10.4274    -4.3044     1.6288 H       
  39 H39            9.0641    -4.2998     3.6735 H       
  40 H40            6.6350    -4.1671     3.5546 H       
@<TRIPOS>BOND
   1    1    2 ar
   2    1    3 ar
   3    1   24 1
   4    2    4 ar
   5    2   25 1
   6    3    5 ar
   7    3   26 1
   8    4    6 1
   9    4    7 ar
  10    5    7 ar
  11    5   27 1
  12    6    8 2
  13    7    9 1
  14    8   10 1
  15    8    9 1
  16   10   11 1
  17   10   12 1
  18   10   13 1
  19   11   28 1
  20   12   19 1
  21   12   29 1
  22   12   30 1
  23   13   14 ar
  24   13   18 ar
  25   14   15 ar
  26   14   31 1
  27   15   16 ar
  28   15   32 1
  29   16   17 ar
  30   16   20 ar
  31   17   18 ar
  32   17   23 ar
  33   18   33 1
  34   19   34 1
  35   19   35 1
  36   19   36 1
  37   20   21 ar
  38   20   37 1
  39   21   22 ar
  40   21   38 1
  41   22   23 ar
  42   22   39 1
  43   23   40 1

#	End of record

