#	Name: ASD00360018
#	Creating user name:	WinNT
#	Creation time:	15. 06. 2019 18:35

#	Modifying user name:	WinNT
#	Modification time:	15. 06. 2019 18:35

#	Program:	/corina/corina34_cracker 3.40 0067  02.08.2006

@<TRIPOS>MOLECULE
ASD00360018
  46   49    0    0    0
SMALL
NO_CHARGES


@<TRIPOS>ATOM
   1 C1            -0.0168     1.3851     0.0097 C.ar    
   2 C2             0.0021    -0.0041     0.0020 C.ar    
   3 C3             1.2071    -0.6880    -0.0138 C.ar    
   4 C4             2.4138     0.0083    -0.0217 C.ar    
   5 C5             2.4120     1.3961    -0.0133 C.ar    
   6 C6             1.1883     2.0954     0.0020 C.ar    
   7 C7             1.1891     3.5688     0.0108 C.2     
   8 C8             3.6850     2.1498    -0.0186 C.2     
   9 C9             3.6674     3.5944     0.2976 C.ar    
  10 C10            2.4420     4.2888     0.3115 C.ar    
  11 C11            2.4243     5.6526     0.6104 C.ar    
  12 C12            4.8475     4.2712     0.5811 C.ar    
  13 C13            4.8152     5.6255     0.8755 C.ar    
  14 C14            3.6185     6.3116     0.8922 C.ar    
  15 O15            1.2119    -2.0451    -0.0211 O.3     
  16 O16            4.7313     1.5893    -0.2789 O.2     
  17 O17            0.1680     4.1854    -0.2276 O.2     
  18 O18            1.2508     6.3319     0.6257 O.3     
  19 O19           -1.1986     2.0498     0.0189 O.3     
  20 C20            6.0982     6.3539     1.1826 C.3     
  21 C21           -1.2950    -0.7712     0.0115 C.3     
  22 N22           -1.7309    -1.0131    -1.3704 N.3     
  23 C23           -3.5355    -1.7265    -2.8619 C.3     
  24 O24           -2.6045    -2.5826    -3.5293 O.3     
  25 C25           -1.2605    -2.0939    -3.5153 C.3     
  26 C26           -0.8027    -1.9170    -2.0651 C.3     
  27 C27           -3.1007    -1.5459    -1.4051 C.3     
  28 H28            3.3493    -0.5312    -0.0341 H       
  29 H29            5.7891     3.7424     0.5724 H       
  30 H30            3.6078     7.3665     1.1232 H       
  31 H31            1.2044    -2.4337    -0.9066 H       
  32 H32            0.8122     6.3399     1.4874 H       
  33 H33           -1.5372     2.2378     0.9049 H       
  34 H34            6.5217     6.7491     0.2593 H       
  35 H35            5.8942     7.1753     1.8695 H       
  36 H36            6.8067     5.6642     1.6413 H       
  37 H37           -1.1493    -1.7250     0.5187 H       
  38 H38           -2.0554    -0.1930     0.5364 H       
  39 H39           -3.5579    -0.7562    -3.3579 H       
  40 H40           -4.5286    -2.1746    -2.8924 H       
  41 H41           -0.6083    -2.8077    -4.0183 H       
  42 H42           -1.2168    -1.1342    -4.0303 H       
  43 H43            0.2004    -1.4908    -2.0495 H       
  44 H44           -0.7951    -2.8855    -1.5651 H       
  45 H45           -3.1299    -2.5085    -0.8945 H       
  46 H46           -3.7751    -0.8488    -0.9077 H       
@<TRIPOS>BOND
   1    1    2 ar
   2    1    6 ar
   3    1   19 1
   4    2    3 ar
   5    2   21 1
   6    3    4 ar
   7    3   15 1
   8    4    5 ar
   9    4   28 1
  10    5    6 ar
  11    5    8 1
  12    6    7 1
  13    7   10 1
  14    7   17 2
  15    8    9 1
  16    8   16 2
  17    9   12 ar
  18    9   10 ar
  19   10   11 ar
  20   11   14 ar
  21   11   18 1
  22   12   13 ar
  23   12   29 1
  24   13   14 ar
  25   13   20 1
  26   14   30 1
  27   15   31 1
  28   18   32 1
  29   19   33 1
  30   20   34 1
  31   20   35 1
  32   20   36 1
  33   21   22 1
  34   21   37 1
  35   21   38 1
  36   22   27 1
  37   22   26 1
  38   23   24 1
  39   23   27 1
  40   23   39 1
  41   23   40 1
  42   24   25 1
  43   25   26 1
  44   25   41 1
  45   25   42 1
  46   26   43 1
  47   26   44 1
  48   27   45 1
  49   27   46 1

#	End of record

