#	Name: ASD01230801
#	Creating user name:	WinNT
#	Creation time:	15. 06. 2019 19:15

#	Modifying user name:	WinNT
#	Modification time:	15. 06. 2019 19:15

#	Program:	/corina/corina34_cracker 3.40 0067  02.08.2006

@<TRIPOS>MOLECULE
ASD01230801
  32   35    0    0    0
SMALL
NO_CHARGES


@<TRIPOS>ATOM
   1 C1            -0.0166     1.3736     0.0096 C.2     
   2 C2             0.0021    -0.0041     0.0020 C.2     
   3 C3            -1.2146    -0.7002     0.0078 C.2     
   4 C4            -2.3849    -0.0393     0.0095 C.2     
   5 N5            -2.4622     1.3311    -0.0002 N.pl3   
   6 C6            -1.3174     2.0757     0.0320 C.2     
   7 C7            -3.8097     1.9044    -0.0513 C.3     
   8 C8            -3.8786     3.1902     0.7777 C.3     
   9 S9            -2.6220     4.3262     0.1104 S.o2    
  10 N10           -1.2619     3.3846     0.0819 N.am    
  11 C11            1.2499     2.1409     0.0016 C.ar    
  12 O12           -2.8860     4.6252    -1.2535 O.2     
  13 O13           -2.3217     5.3522     1.0464 O.2     
  14 C14            2.0921     2.0697    -1.0957 C.ar    
  15 C15            3.2971     2.7979    -1.1081 C.ar    
  16 C16            3.6156     3.5852     0.0049 C.ar    
  17 C17            2.7549     3.6440     1.1008 C.ar    
  18 C18            1.5876     2.9395     1.1007 C.ar    
  19 N19            4.2466     2.8701    -2.0608 N.2     
  20 C20            5.2641     3.6117    -1.8349 C.2     
  21 S21            5.1642     4.3645    -0.3069 S.3     
  22 H22            0.9399    -0.5395    -0.0085 H       
  23 H23           -1.2115    -1.7802     0.0105 H       
  24 H24           -3.3019    -0.6098     0.0185 H       
  25 H25           -4.0655     2.1300    -1.0866 H       
  26 H26           -4.5231     1.1821     0.3455 H       
  27 H27           -4.8686     3.6374     0.6882 H       
  28 H28           -3.6625     2.9701     1.8232 H       
  29 H29            1.8244     1.4549    -1.9423 H       
  30 H30            3.0127     4.2550     1.9533 H       
  31 H31            0.9268     2.9906     1.9535 H       
  32 H32            6.0843     3.7444    -2.5249 H       
@<TRIPOS>BOND
   1    1    2 2
   2    1   11 1
   3    1    6 1
   4    2    3 1
   5    2   22 1
   6    3    4 2
   7    3   23 1
   8    4    5 1
   9    4   24 1
  10    5    6 1
  11    5    7 1
  12    6   10 2
  13    7    8 1
  14    7   25 1
  15    7   26 1
  16    8    9 1
  17    8   27 1
  18    8   28 1
  19    9   10 am
  20    9   12 2
  21    9   13 2
  22   11   14 ar
  23   11   18 ar
  24   14   15 ar
  25   14   29 1
  26   15   16 ar
  27   15   19 1
  28   16   17 ar
  29   16   21 1
  30   17   18 ar
  31   17   30 1
  32   18   31 1
  33   19   20 2
  34   20   21 1
  35   20   32 1

#	End of record

