#	Name: ASD01708033
#	Creating user name:	WinNT
#	Creation time:	15. 06. 2019 19:22

#	Modifying user name:	WinNT
#	Modification time:	15. 06. 2019 19:22

#	Program:	/corina/corina34_cracker 3.40 0067  02.08.2006

@<TRIPOS>MOLECULE
ASD01708033
  66   70    0    0    0
SMALL
NO_CHARGES


@<TRIPOS>ATOM
   1 C1            -0.0005     1.4217    -0.0407 C.ar    
   2 C2             1.1226     1.9782     0.5750 C.ar    
   3 C3             0.0797     0.1615    -0.6621 C.ar    
   4 C4             1.2839    -0.5225    -0.6583 C.ar    
   5 C5             2.3980     0.0438    -0.0411 C.ar    
   6 C6             2.3047     1.2985     0.5753 C.ar    
   7 C7             3.6826    -0.6833    -0.0351 C.2     
   8 N8             3.6956    -2.0276     0.0600 N.am    
   9 O9             4.7290    -0.0694    -0.1159 O.2     
  10 C10            4.9482    -2.7920    -0.0617 C.3     
  11 C11            2.4636    -2.7879     0.2949 C.3     
  12 C12            2.7106    -3.8454     1.3423 C.ar    
  13 C13            3.9773    -4.1651     1.7810 C.ar    
  14 C14            5.2113    -3.4774     1.2781 C.3     
  15 C15            1.6046    -4.5050     1.8652 C.ar    
  16 C16            1.7563    -5.4876     2.8191 C.ar    
  17 C17            3.0378    -5.8242     3.2640 C.ar    
  18 C18            4.1433    -5.1569     2.7387 C.ar    
  19 Cl19           5.7387    -5.5691     3.2851 Cl      
  20 Cl20           0.3652    -6.3015     3.4644 Cl      
  21 C21            3.2193    -6.8783     4.2825 C.2     
  22 N22            3.2196    -6.5576     5.5915 N.am    
  23 O23            3.3685    -8.0352     3.9400 O.2     
  24 C24            3.3996    -7.6032     6.6018 C.3     
  25 C25            2.0690    -8.2417     6.9066 C.2     
  26 O26            1.9908    -9.2318     7.8094 O.3     
  27 O27            1.0725    -7.8622     6.3383 O.2     
  28 C28            3.9732    -6.9854     7.8785 C.3     
  29 C29            5.3567    -6.4553     7.6025 C.ar    
  30 C30           -1.3854     1.8631    -0.2296 C.2     
  31 C31           -2.0018     0.8834    -0.9085 C.2     
  32 O32           -1.1412    -0.1160    -1.1637 O.3     
  33 C33            5.5245    -5.1521     7.1725 C.ar    
  34 C34            6.4580    -7.2703     7.7845 C.ar    
  35 C35            7.7272    -6.7840     7.5312 C.ar    
  36 C36            7.8946    -5.4830     7.0955 C.ar    
  37 C37            6.7933    -4.6659     6.9193 C.ar    
  38 C38            8.9282    -7.6722     7.7306 C.3     
  39 C39            9.3841    -8.2246     6.3786 C.3     
  40 O40            9.9884    -6.9151     8.3178 O.3     
  41 H41            1.0551     2.9458     1.0499 H       
  42 H42            1.3593    -1.4906    -1.1312 H       
  43 H43            3.1730     1.7298     1.0512 H       
  44 H44            4.8478    -3.5420    -0.8463 H       
  45 H45            5.7706    -2.1171    -0.2986 H       
  46 H46            1.6807    -2.1123     0.6393 H       
  47 H47            2.1485    -3.2638    -0.6337 H       
  48 H48            6.0043    -4.2139     1.1479 H       
  49 H49            5.5303    -2.7339     2.0085 H       
  50 H50            0.6150    -4.2442     1.5201 H       
  51 H51            3.1005    -5.6345     5.8648 H       
  52 H52            4.0873    -8.3595     6.2234 H       
  53 H53            1.1158    -9.6102     7.9713 H       
  54 H54            3.3304    -6.1690     8.2078 H       
  55 H55            4.0242    -7.7450     8.6586 H       
  56 H56           -1.8221     2.7908     0.1096 H       
  57 H57           -3.0389     0.8979    -1.2095 H       
  58 H58            4.6642    -4.5140     7.0342 H       
  59 H59            6.3272    -8.2868     8.1249 H       
  60 H60            8.8861    -5.1030     6.8980 H       
  61 H61            6.9241    -3.6493     6.5789 H       
  62 H62            8.6633    -8.4987     8.3901 H       
  63 H63            9.6489    -7.3981     5.7191 H       
  64 H64           10.2527    -8.8671     6.5228 H       
  65 H65            8.5754    -8.8021     5.9306 H       
  66 H66           10.2761    -6.1618     7.7842 H       
@<TRIPOS>BOND
   1    1    2 ar
   2    1    3 ar
   3    1   30 1
   4    2    6 ar
   5    2   41 1
   6    3    4 ar
   7    3   32 1
   8    4    5 ar
   9    4   42 1
  10    5    6 ar
  11    5    7 1
  12    6   43 1
  13    7    8 am
  14    7    9 2
  15    8   10 1
  16    8   11 1
  17   10   14 1
  18   10   44 1
  19   10   45 1
  20   11   12 1
  21   11   46 1
  22   11   47 1
  23   12   13 ar
  24   12   15 ar
  25   13   14 1
  26   13   18 ar
  27   14   48 1
  28   14   49 1
  29   15   16 ar
  30   15   50 1
  31   16   17 ar
  32   16   20 1
  33   17   18 ar
  34   17   21 1
  35   18   19 1
  36   21   22 am
  37   21   23 2
  38   22   24 1
  39   22   51 1
  40   24   25 1
  41   24   28 1
  42   24   52 1
  43   25   26 1
  44   25   27 2
  45   26   53 1
  46   28   29 1
  47   28   54 1
  48   28   55 1
  49   29   33 ar
  50   29   34 ar
  51   30   31 2
  52   30   56 1
  53   31   32 1
  54   31   57 1
  55   33   37 ar
  56   33   58 1
  57   34   35 ar
  58   34   59 1
  59   35   36 ar
  60   35   38 1
  61   36   37 ar
  62   36   60 1
  63   37   61 1
  64   38   39 1
  65   38   40 1
  66   38   62 1
  67   39   63 1
  68   39   64 1
  69   39   65 1
  70   40   66 1

#	End of record

