#	Name: ASD04910563
#	Creating user name:	WinNT
#	Creation time:	15. 06. 2019 20:56

#	Modifying user name:	WinNT
#	Modification time:	15. 06. 2019 20:56

#	Program:	/corina/corina34_cracker 3.40 0067  02.08.2006

@<TRIPOS>MOLECULE
ASD04910563
  58   60    0    0    0
SMALL
NO_CHARGES


@<TRIPOS>ATOM
   1 C1            -0.0184     1.5028     0.0103 C.2     
   2 C2             0.0021    -0.0041     0.0020 C.3     
   3 C3             1.4513    -0.4944    -0.0145 C.3     
   4 O4             1.0197     2.1211     0.0037 O.2     
   5 O5            -1.1898     2.1580     0.0194 O.3     
   6 C6             2.6473    -2.6171    -0.0373 C.2     
   7 C7             2.6674    -4.0954    -0.0454 C.ar    
   8 C8             3.8837    -4.7799    -0.0607 C.ar    
   9 C9             3.8954    -6.1594    -0.0677 C.ar    
  10 C10            2.7049    -6.8644    -0.0601 C.ar    
  11 C11            1.4958    -6.1920    -0.0450 C.ar    
  12 C12            1.4701    -4.8127    -0.0320 C.ar    
  13 O13            3.6916    -1.9951    -0.0439 O.2     
  14 N14            1.4712    -1.9592    -0.0225 N.am    
  15 C15            2.7254    -8.3712    -0.0689 C.3     
  16 C16            2.4680    -8.8765    -1.4899 C.3     
  17 C17            2.6119   -10.3993    -1.5236 C.3     
  18 C18            2.3545   -10.9046    -2.9447 C.3     
  19 N19            1.6827    -8.8789     0.8263 N.pl3   
  20 C20            2.9204   -10.9354     1.1244 C.ar    
  21 C21            1.8098   -10.1485     1.3985 C.ar    
  22 C22            0.8237   -10.6401     2.2515 C.ar    
  23 C23            0.9920   -11.9015     2.7950 C.ar    
  24 C24            2.1299   -12.6308     2.4747 C.ar    
  25 N25            3.0466   -12.1330     1.6609 N.ar    
  26 N26            2.3090   -13.9075     3.0195 N.pl3   
  27 N27            1.4301   -14.5639     3.8909 N.2     
  28 C28            1.9381   -15.7344     4.1804 C.2     
  29 C29            3.1564   -15.8655     3.5050 C.2     
  30 C30            3.3629   -14.7335     2.7930 C.2     
  31 C31            4.0745   -17.0594     3.5571 C.3     
  32 F32            3.5225   -18.0360     4.3930 F       
  33 F33            4.2323   -17.5829     2.2693 F       
  34 F34            5.3210   -16.6678     4.0573 F       
  35 H35           -0.4983    -0.3791     0.8948 H       
  36 H36           -0.5153    -0.3696    -0.8850 H       
  37 H37            1.9516    -0.1193    -0.9073 H       
  38 H38            1.9686    -0.1289     0.8726 H       
  39 H39           -1.1523     3.1243     0.0245 H       
  40 H40            4.8137    -4.2307    -0.0674 H       
  41 H41            4.8359    -6.6902    -0.0796 H       
  42 H42            0.5700    -6.7482    -0.0391 H       
  43 H43            0.5257    -4.2891    -0.0157 H       
  44 H44            0.6378    -2.4556    -0.0172 H       
  45 H45            3.6993    -8.7233     0.2711 H       
  46 H46            1.4593    -8.6000    -1.7967 H       
  47 H47            3.1908    -8.4280    -2.1715 H       
  48 H48            3.6206   -10.6758    -1.2168 H       
  49 H49            1.8891   -10.8477    -0.8421 H       
  50 H50            2.4570   -11.9895    -2.9687 H       
  51 H51            1.3458   -10.6281    -3.2515 H       
  52 H52            3.0773   -10.4562    -3.6262 H       
  53 H53            0.9042    -8.3344     1.0221 H       
  54 H54            3.6873   -10.5640     0.4608 H       
  55 H55           -0.0509   -10.0505     2.4833 H       
  56 H56            0.2478   -12.3137     3.4603 H       
  57 H57            1.4928   -16.4735     4.8299 H       
  58 H58            4.2132   -14.5238     2.1610 H       
@<TRIPOS>BOND
   1    1    2 1
   2    1    4 2
   3    1    5 1
   4    2    3 1
   5    2   35 1
   6    2   36 1
   7    3   14 1
   8    3   37 1
   9    3   38 1
  10    5   39 1
  11    6    7 1
  12    6   13 2
  13    6   14 am
  14    7    8 ar
  15    7   12 ar
  16    8    9 ar
  17    8   40 1
  18    9   10 ar
  19    9   41 1
  20   10   11 ar
  21   10   15 1
  22   11   12 ar
  23   11   42 1
  24   12   43 1
  25   14   44 1
  26   15   16 1
  27   15   19 1
  28   15   45 1
  29   16   17 1
  30   16   46 1
  31   16   47 1
  32   17   18 1
  33   17   48 1
  34   17   49 1
  35   18   50 1
  36   18   51 1
  37   18   52 1
  38   19   21 1
  39   19   53 1
  40   20   21 ar
  41   20   25 ar
  42   20   54 1
  43   21   22 ar
  44   22   23 ar
  45   22   55 1
  46   23   24 ar
  47   23   56 1
  48   24   25 ar
  49   24   26 1
  50   26   27 1
  51   26   30 1
  52   27   28 2
  53   28   29 1
  54   28   57 1
  55   29   30 2
  56   29   31 1
  57   30   58 1
  58   31   32 1
  59   31   33 1
  60   31   34 1

#	End of record

