#	Name: ASD01812121
#	Creating user name:	WinNT
#	Creation time:	15. 06. 2019 19:28

#	Modifying user name:	WinNT
#	Modification time:	15. 06. 2019 19:28

#	Program:	/corina/corina34_cracker 3.40 0067  02.08.2006

@<TRIPOS>MOLECULE
ASD01812121
  24   23    0    0    0
SMALL
NO_CHARGES


@<TRIPOS>ATOM
   1 C1            -0.0173     1.4248     0.0099 C.3     
   2 O2             0.0021    -0.0041     0.0020 O.3     
   3 C3             1.4181     1.9544    -0.0010 C.3     
   4 O4             2.0503     1.5916    -1.2301 O.3     
   5 C5             3.4023     2.0405    -1.3429 C.3     
   6 C6             3.9758     1.5981    -2.6905 C.3     
   7 O7             3.1502     4.0668    -5.9730 O.3     
   8 C8             2.9087     2.6642    -6.1005 C.3     
   9 C9             3.7306     1.9080    -5.0547 C.3     
  10 O10            3.2706     2.2535    -3.7466 O.3     
  11 H11           -0.5445     1.7859    -0.8732 H       
  12 H12           -0.5275     1.7763     0.9067 H       
  13 H13           -0.8759    -0.4094     0.0082 H       
  14 H14            1.4055     3.0401     0.0945 H       
  15 H15            1.9710     1.5226     0.8333 H       
  16 H16            3.4309     3.1280    -1.2752 H       
  17 H17            3.9964     1.6105    -0.5364 H       
  18 H18            5.0321     1.8625    -2.7403 H       
  19 H19            3.8661     0.5188    -2.7954 H       
  20 H20            2.6606     4.6094    -6.6062 H       
  21 H21            1.8489     2.4624    -5.9451 H       
  22 H22            3.1988     2.3347    -7.0982 H       
  23 H23            3.6157     0.8351    -5.2086 H       
  24 H24            4.7818     2.1788    -5.1534 H       
@<TRIPOS>BOND
   1    1    2 1
   2    1    3 1
   3    1   11 1
   4    1   12 1
   5    2   13 1
   6    3    4 1
   7    3   14 1
   8    3   15 1
   9    4    5 1
  10    5    6 1
  11    5   16 1
  12    5   17 1
  13    6   10 1
  14    6   18 1
  15    6   19 1
  16    7    8 1
  17    7   20 1
  18    8    9 1
  19    8   21 1
  20    8   22 1
  21    9   10 1
  22    9   23 1
  23    9   24 1

#	End of record

