#	Name: ASD03730235
#	Creating user name:	WinNT
#	Creation time:	15. 06. 2019 20:44

#	Modifying user name:	WinNT
#	Modification time:	15. 06. 2019 20:44

#	Program:	/corina/corina34_cracker 3.40 0067  02.08.2006

@<TRIPOS>MOLECULE
ASD03730235
  61   66    0    0    0
SMALL
NO_CHARGES


@<TRIPOS>ATOM
   1 O1             1.2824     2.0167    -1.7319 O.3     
   2 C2             1.2669     0.5852    -1.8857 C.3     
   3 O3             2.6513     0.2484    -2.0926 O.3     
   4 C4             3.3638     1.2292    -1.4639 C.ar    
   5 C5             2.5221     2.3173    -1.2446 C.ar    
   6 C6             4.6834     1.2816    -1.0524 C.ar    
   7 C7             5.1805     2.4181    -0.4216 C.ar    
   8 C8             4.3336     3.5034    -0.2187 C.ar    
   9 C9             3.0154     3.4511    -0.6212 C.ar    
  10 O10            6.4271     2.6650     0.0736 O.3     
  11 C11            5.1584     4.5734     0.4449 C.3     
  12 C12            6.5993     4.0855     0.2399 C.3     
  13 N13            4.5248     6.7355     0.8274 N.am    
  14 C14            4.9349     5.9257    -0.1690 C.2     
  15 C15            4.8236     4.7366     1.8975 C.ar    
  16 C16            4.8266     3.8747     2.9858 C.ar    
  17 C17            4.4528     4.3456     4.2443 C.ar    
  18 C18            4.0823     5.6668     4.3983 C.ar    
  19 C19            4.0792     6.5230     3.3159 C.ar    
  20 C20            4.4504     6.0670     2.0522 C.ar    
  21 O21            5.0924     6.2294    -1.3327 O.2     
  22 C22            5.2256     2.4569     2.8105 C.ar    
  23 C23            6.5784     2.1134     2.7249 C.ar    
  24 C24            6.9421     0.7866     2.5617 C.ar    
  25 C25            5.9703    -0.1933     2.4840 C.ar    
  26 C26            4.6311     0.1435     2.5685 C.ar    
  27 C27            4.2549     1.4611     2.7364 C.ar    
  28 O28            7.5325     3.0773     2.8009 O.3     
  29 C29            8.8934     2.6520     2.7056 C.3     
  30 F30            9.0984     2.0163     1.4764 F       
  31 F31            9.7373     3.7637     2.8022 F       
  32 F32            9.1770     1.7597     3.7451 F       
  33 C33            4.1963     8.1518     0.6475 C.3     
  34 C34            2.7109     8.2916     0.3083 C.3     
  35 C35            2.3678     9.7708     0.1204 C.3     
  36 C36            0.8824     9.9107    -0.2187 C.3     
  37 C37            0.5393    11.3898    -0.4066 C.3     
  38 H38            0.8872     0.1071    -0.9827 H       
  39 H39            0.6697     0.2995    -2.7516 H       
  40 H40            5.3320     0.4348    -1.2214 H       
  41 H41            2.3662     4.2971    -0.4502 H       
  42 H42            7.2095     4.3014     1.1169 H       
  43 H43            7.0348     4.5300    -0.6550 H       
  44 H44            4.4530     3.6797     5.0946 H       
  45 H45            3.7924     6.0325     5.3722 H       
  46 H46            3.7872     7.5542     3.4492 H       
  47 H47            7.9859     0.5176     2.4948 H       
  48 H48            6.2577    -1.2265     2.3565 H       
  49 H49            3.8774    -0.6276     2.5066 H       
  50 H50            3.2086     1.7198     2.8061 H       
  51 H51            4.4115     8.6944     1.5680 H       
  52 H52            4.7948     8.5632    -0.1653 H       
  53 H53            2.4957     7.7489    -0.6121 H       
  54 H54            2.1124     7.8802     1.1211 H       
  55 H55            2.5830    10.3135     1.0409 H       
  56 H56            2.9663    10.1822    -0.6923 H       
  57 H57            0.6672     9.3680    -1.1392 H       
  58 H58            0.2839     9.4992     0.5940 H       
  59 H59            0.7545    11.9325     0.5138 H       
  60 H60            1.1379    11.8012    -1.2194 H       
  61 H61           -0.5189    11.4894    -0.6482 H       
@<TRIPOS>BOND
   1    1    2 1
   2    1    5 1
   3    2    3 1
   4    2   38 1
   5    2   39 1
   6    3    4 1
   7    4    5 ar
   8    4    6 ar
   9    5    9 ar
  10    6    7 ar
  11    6   40 1
  12    7    8 ar
  13    7   10 1
  14    8    9 ar
  15    8   11 1
  16    9   41 1
  17   10   12 1
  18   11   12 1
  19   11   14 1
  20   11   15 1
  21   12   42 1
  22   12   43 1
  23   13   14 am
  24   13   20 1
  25   13   33 1
  26   14   21 2
  27   15   16 ar
  28   15   20 ar
  29   16   17 ar
  30   16   22 1
  31   17   18 ar
  32   17   44 1
  33   18   19 ar
  34   18   45 1
  35   19   20 ar
  36   19   46 1
  37   22   23 ar
  38   22   27 ar
  39   23   24 ar
  40   23   28 1
  41   24   25 ar
  42   24   47 1
  43   25   26 ar
  44   25   48 1
  45   26   27 ar
  46   26   49 1
  47   27   50 1
  48   28   29 1
  49   29   30 1
  50   29   31 1
  51   29   32 1
  52   33   34 1
  53   33   51 1
  54   33   52 1
  55   34   35 1
  56   34   53 1
  57   34   54 1
  58   35   36 1
  59   35   55 1
  60   35   56 1
  61   36   37 1
  62   36   57 1
  63   36   58 1
  64   37   59 1
  65   37   60 1
  66   37   61 1

#	End of record

