#	Name: ASD01410831
#	Creating user name:	WinNT
#	Creation time:	15. 06. 2019 19:18

#	Modifying user name:	WinNT
#	Modification time:	15. 06. 2019 19:18

#	Program:	/corina/corina34_cracker 3.40 0067  02.08.2006

@<TRIPOS>MOLECULE
ASD01410831
 101  107    0    0    0
SMALL
NO_CHARGES


@<TRIPOS>ATOM
   1 C1             0.7603     1.8892     1.9385 C.3     
   2 C2             0.1418     0.5839     2.4890 C.3     
   3 N3             0.0095     0.8330     3.9419 N.am    
   4 C4            -0.1577     2.2733     4.1521 C.3     
   5 C5             0.0041     2.9576     2.7762 C.3     
   6 O6             2.1659     1.9384     2.1912 O.3     
   7 C7            -1.5305     2.5547     4.7065 C.2     
   8 O8            -2.3017     1.6408     4.9091 O.2     
   9 N9            -1.9012     3.8219     4.9771 N.am    
  10 C10            1.1297    -0.5763     2.3317 C.3     
  11 N11            0.6040    -1.7360     3.0588 N.3     
  12 C12            0.4804    -1.5359     4.4964 C.3     
  13 C13            0.0945    -0.1350     4.8688 C.2     
  14 O14           -0.1451     0.1283     6.0282 O.2     
  15 C15           -0.5799    -2.4975     5.0368 C.3     
  16 C16           -0.2157    -3.9309     4.6446 C.3     
  17 C17           -0.6403    -2.3856     6.5615 C.3     
  18 C18           -1.9439    -2.1377     4.4445 C.3     
  19 C19           -3.2673     4.1059     5.4234 C.3     
  20 C20           -4.3511     3.8349     4.4120 C.2     
  21 N21           -4.0248     3.4820     3.1528 N.am    
  22 O22           -5.5170     3.9344     4.7311 O.2     
  23 S23           -5.2096     3.3020     2.0100 S.o2    
  24 C24           -5.9021     4.9666     1.8099 C.3     
  25 C25           -3.5963     3.8534     6.8962 C.3     
  26 C26           -3.4684     5.2870     6.3750 C.3     
  27 C27           -7.0410     5.1416     0.8033 C.3     
  28 C28           -7.3308     5.2015     2.3044 C.3     
  29 O29           -4.5090     2.9092     0.8378 O.2     
  30 O30           -6.1576     2.4377     2.6211 O.2     
  31 C31           -4.9795     3.3532     7.2243 C.2     
  32 C32           -5.1331     2.2016     7.8294 C.2     
  33 C33            2.9059     2.7523     1.3980 C.ar    
  34 C34            4.3112     2.8245     1.5419 C.ar    
  35 C35            2.3127     3.5223     0.4323 C.ar    
  36 C36            3.0999     4.3549    -0.3749 C.ar    
  37 N37            4.4126     4.4187    -0.2293 N.ar    
  38 C38            5.0470     3.6874     0.6925 C.ar    
  39 C39            2.4478     5.1804    -1.4130 C.2     
  40 S40            0.7179     5.2288    -1.7432 S.3     
  41 C41            6.4432     3.7643     0.8380 C.ar    
  42 C42            7.0702     2.9997     1.7964 C.ar    
  43 C43            6.3341     2.1486     2.6255 C.ar    
  44 C44            4.9810     2.0590     2.5074 C.ar    
  45 Cl45           7.3711     4.8164    -0.1846 Cl      
  46 O46            8.4196     3.0731     1.9374 O.3     
  47 C47            9.0116     2.2557     2.9490 C.3     
  48 N48            3.0591     5.9931    -2.2268 N.2     
  49 C49            2.3166     6.6475    -3.0867 C.2     
  50 C50            1.0012     6.4033    -3.0265 C.2     
  51 C51            2.9064     7.6159    -4.0794 C.3     
  52 C52            3.1476     6.8992    -5.4094 C.3     
  53 C53            1.9362     8.7790    -4.2954 C.3     
  54 C54           -4.9052     6.1180     1.9559 C.3     
  55 H55            0.5512     2.0041     0.8750 H       
  56 H56           -0.8226     0.3714     2.0275 H       
  57 H57            0.6047     2.6387     4.8401 H       
  58 H58            0.5976     3.8674     2.8660 H       
  59 H59           -0.9696     3.1734     2.3365 H       
  60 H60           -1.2635     4.5458     4.8764 H       
  61 H61            1.2384    -0.8243     1.2759 H       
  62 H62            2.0972    -0.2922     2.7457 H       
  63 H63           -0.2694    -2.0469     2.6605 H       
  64 H64            1.4353    -1.7723     4.9660 H       
  65 H65            0.7561    -4.1873     5.0666 H       
  66 H66           -0.9711    -4.6160     5.0296 H       
  67 H67           -0.1727    -4.0106     3.5584 H       
  68 H68           -1.0673    -1.4218     6.8384 H       
  69 H69           -1.2626    -3.1868     6.9602 H       
  70 H70            0.3660    -2.4686     6.9720 H       
  71 H71           -1.9009    -2.2174     3.3583 H       
  72 H72           -2.6993    -2.8228     4.8295 H       
  73 H73           -2.2034    -1.1166     4.7239 H       
  74 H74           -3.0959     3.3335     2.9161 H       
  75 H75           -2.7963     3.4759     7.5330 H       
  76 H76           -2.5843     5.8525     6.6693 H       
  77 H77           -4.3847     5.8679     6.2698 H       
  78 H78           -7.0803     6.0772     0.2454 H       
  79 H79           -7.3742     4.2565     0.2613 H       
  80 H80           -7.8546     4.3558     2.7500 H       
  81 H81           -7.5608     6.1765     2.7341 H       
  82 H82           -5.8441     3.9442     6.9606 H       
  83 H83           -6.1243     1.8431     8.0646 H       
  84 H84           -4.2684     1.6106     8.0932 H       
  85 H85            1.2423     3.4874     0.2932 H       
  86 H86            6.8447     1.5571     3.3711 H       
  87 H87            4.4243     1.3974     3.1545 H       
  88 H88           10.0907     2.4097     2.9552 H       
  89 H89            8.6004     2.5263     3.9216 H       
  90 H90            8.7954     1.2077     2.7420 H       
  91 H91            0.2447     6.8498    -3.6548 H       
  92 H92            3.8524     7.9983    -3.6959 H       
  93 H93            3.5742     7.5996    -6.1274 H       
  94 H94            3.8388     6.0705    -5.2555 H       
  95 H95            2.2016     6.5168    -5.7929 H       
  96 H96            1.7643     9.2896    -3.3479 H       
  97 H97            2.3627     9.4794    -5.0134 H       
  98 H98            0.9902     8.3966    -4.6789 H       
  99 H99           -4.4166     6.2992     0.9986 H       
 100 H100          -5.4334     7.0182     2.2704 H       
 101 H101          -4.1555     5.8570     2.7028 H       
@<TRIPOS>BOND
   1    1    2 1
   2    1    6 1
   3    1    5 1
   4    1   55 1
   5    2    3 1
   6    2   10 1
   7    2   56 1
   8    3    4 1
   9    3   13 am
  10    4    5 1
  11    4    7 1
  12    4   57 1
  13    5   58 1
  14    5   59 1
  15    6   33 1
  16    7    8 2
  17    7    9 am
  18    9   19 1
  19    9   60 1
  20   10   11 1
  21   10   61 1
  22   10   62 1
  23   11   12 1
  24   11   63 1
  25   12   13 1
  26   12   15 1
  27   12   64 1
  28   13   14 2
  29   15   16 1
  30   15   17 1
  31   15   18 1
  32   16   65 1
  33   16   66 1
  34   16   67 1
  35   17   68 1
  36   17   69 1
  37   17   70 1
  38   18   71 1
  39   18   72 1
  40   18   73 1
  41   19   20 1
  42   19   25 1
  43   19   26 1
  44   20   21 am
  45   20   22 2
  46   21   23 am
  47   21   74 1
  48   23   24 1
  49   23   29 2
  50   23   30 2
  51   24   27 1
  52   24   54 1
  53   24   28 1
  54   25   26 1
  55   25   31 1
  56   25   75 1
  57   26   76 1
  58   26   77 1
  59   27   28 1
  60   27   78 1
  61   27   79 1
  62   28   80 1
  63   28   81 1
  64   31   32 2
  65   31   82 1
  66   32   83 1
  67   32   84 1
  68   33   34 ar
  69   33   35 ar
  70   34   38 ar
  71   34   44 ar
  72   35   36 ar
  73   35   85 1
  74   36   37 ar
  75   36   39 1
  76   37   38 ar
  77   38   41 ar
  78   39   48 2
  79   39   40 1
  80   40   50 1
  81   41   42 ar
  82   41   45 1
  83   42   43 ar
  84   42   46 1
  85   43   44 ar
  86   43   86 1
  87   44   87 1
  88   46   47 1
  89   47   88 1
  90   47   89 1
  91   47   90 1
  92   48   49 1
  93   49   50 2
  94   49   51 1
  95   50   91 1
  96   51   52 1
  97   51   53 1
  98   51   92 1
  99   52   93 1
 100   52   94 1
 101   52   95 1
 102   53   96 1
 103   53   97 1
 104   53   98 1
 105   54   99 1
 106   54  100 1
 107   54  101 1

#	End of record

