#	Name: ASD01478014
#	Creating user name:	WinNT
#	Creation time:	15. 06. 2019 19:21

#	Modifying user name:	WinNT
#	Modification time:	15. 06. 2019 19:21

#	Program:	/corina/corina34_cracker 3.40 0067  02.08.2006

@<TRIPOS>MOLECULE
ASD01478014
  76   78    0    0    0
SMALL
NO_CHARGES


@<TRIPOS>ATOM
   1 C1             1.5805     1.3335     1.9363 C.3     
   2 C2             3.0080     2.1129     0.1895 C.2     
   3 O3             2.8003     1.9990     1.5149 O.3     
   4 N4             4.1207     2.7199    -0.2685 N.am    
   5 O5             2.1922     1.6684    -0.5937 O.2     
   6 C6             3.6286     4.0894    -2.2342 C.3     
   7 C7             4.3466     2.8439    -1.7107 C.3     
   8 C8             5.8471     2.9679    -1.9830 C.3     
   9 C9             6.0927     2.9719    -3.4932 C.3     
  10 N10            7.5340     2.9426    -3.7536 N.am    
  11 S11            8.2967     1.4986    -4.0281 S.o2    
  12 C12            8.2421     1.2015    -5.7640 C.ar    
  13 C13            9.2633     1.6608    -6.5752 C.ar    
  14 C14            9.2228     1.4292    -7.9365 C.ar    
  15 C15            8.1563     0.7352    -8.4895 C.ar    
  16 C16            7.1330     0.2755    -7.6734 C.ar    
  17 C17            7.1809     0.5047    -6.3119 C.ar    
  18 O18            9.6643     1.6980    -3.6979 O.2     
  19 O19            7.4894     0.4973    -3.4241 O.2     
  20 C20            8.3007     4.1909    -3.7712 C.3     
  21 C21            7.8166     5.0705    -4.9256 C.3     
  22 C22            8.5099     6.4326    -4.8545 C.3     
  23 C23            8.1532     4.3958    -6.2569 C.3     
  24 O24            6.3346     4.1865    -1.4179 O.3     
  25 C25            1.8416    -0.1677     2.0841 C.3     
  26 O26            0.6559    -0.8120     2.5543 O.3     
  27 C27            0.2122    -0.3557     3.8338 C.3     
  28 C28           -0.1143     1.1380     3.7563 C.3     
  29 C29            1.1279     1.9004     3.2854 C.3     
  30 O30           -1.1821     1.3459     2.8296 O.3     
  31 C31            2.1400     3.9142    -2.0775 C.ar    
  32 C32            1.5143     4.3250    -0.9153 C.ar    
  33 C33            0.1489     4.1642    -0.7715 C.ar    
  34 C34           -0.5909     3.5931    -1.7901 C.ar    
  35 C35            0.0347     3.1832    -2.9526 C.ar    
  36 C36            1.3995     3.3479    -3.0982 C.ar    
  37 O37            8.1140     0.5065    -9.8284 O.3     
  38 C38            6.9860    -0.2145   -10.3281 C.3     
  39 H39            0.8011     1.4961     1.1918 H       
  40 H40            4.7719     3.0748     0.3567 H       
  41 H41            3.9535     4.9615    -1.6669 H       
  42 H42            3.8688     4.2313    -3.2879 H       
  43 H43            3.9573     1.9604    -2.2167 H       
  44 H44            6.3691     2.1239    -1.5323 H       
  45 H45            5.6249     2.0945    -3.9397 H       
  46 H46            5.6630     3.8740    -3.9288 H       
  47 H47           10.0931     2.2013    -6.1443 H       
  48 H48           10.0205     1.7884    -8.5698 H       
  49 H49            6.3017    -0.2650    -8.1015 H       
  50 H50            6.3845     0.1471    -5.6761 H       
  51 H51            8.1581     4.7182    -2.8280 H       
  52 H52            9.3587     3.9656    -3.9051 H       
  53 H53            6.7378     5.2076    -4.8503 H       
  54 H54            9.5886     6.2955    -4.9299 H       
  55 H55            8.1650     7.0592    -5.6770 H       
  56 H56            8.2701     6.9133    -3.9061 H       
  57 H57            9.2325     4.2650    -6.3353 H       
  58 H58            7.6648     3.4225    -6.3046 H       
  59 H59            7.8021     5.0192    -7.0792 H       
  60 H60            5.9790     4.9833    -1.8347 H       
  61 H61            2.1227    -0.5847     1.1170 H       
  62 H62            2.6496    -0.3276     2.7979 H       
  63 H63           -0.6804    -0.9082     4.1273 H       
  64 H64            0.9990    -0.5181     4.5705 H       
  65 H65           -0.4107     1.4976     4.7416 H       
  66 H66            1.9272     1.7826     4.0170 H       
  67 H67            0.8866     2.9575     3.1742 H       
  68 H68           -2.0006     0.8871     3.0633 H       
  69 H69            2.0923     4.7712    -0.1195 H       
  70 H70           -0.3399     4.4845     0.1367 H       
  71 H71           -1.6575     3.4669    -1.6775 H       
  72 H72           -0.5432     2.7366    -3.7483 H       
  73 H73            1.8877     3.0310    -4.0079 H       
  74 H74            7.0766    -0.3278   -11.4084 H       
  75 H75            6.9482    -1.1989    -9.8615 H       
  76 H76            6.0726     0.3331   -10.0955 H       
@<TRIPOS>BOND
   1    1   25 1
   2    1    3 1
   3    1   29 1
   4    1   39 1
   5    2    3 1
   6    2    4 am
   7    2    5 2
   8    4    7 1
   9    4   40 1
  10    6    7 1
  11    6   31 1
  12    6   41 1
  13    6   42 1
  14    7    8 1
  15    7   43 1
  16    8    9 1
  17    8   24 1
  18    8   44 1
  19    9   10 1
  20    9   45 1
  21    9   46 1
  22   10   11 am
  23   10   20 1
  24   11   12 1
  25   11   18 2
  26   11   19 2
  27   12   13 ar
  28   12   17 ar
  29   13   14 ar
  30   13   47 1
  31   14   15 ar
  32   14   48 1
  33   15   16 ar
  34   15   37 1
  35   16   17 ar
  36   16   49 1
  37   17   50 1
  38   20   21 1
  39   20   51 1
  40   20   52 1
  41   21   22 1
  42   21   23 1
  43   21   53 1
  44   22   54 1
  45   22   55 1
  46   22   56 1
  47   23   57 1
  48   23   58 1
  49   23   59 1
  50   24   60 1
  51   25   26 1
  52   25   61 1
  53   25   62 1
  54   26   27 1
  55   27   28 1
  56   27   63 1
  57   27   64 1
  58   28   29 1
  59   28   30 1
  60   28   65 1
  61   29   66 1
  62   29   67 1
  63   30   68 1
  64   31   32 ar
  65   31   36 ar
  66   32   33 ar
  67   32   69 1
  68   33   34 ar
  69   33   70 1
  70   34   35 ar
  71   34   71 1
  72   35   36 ar
  73   35   72 1
  74   36   73 1
  75   37   38 1
  76   38   74 1
  77   38   75 1
  78   38   76 1

#	End of record

