#	Name: ASD08151061
#	Creating user name:	WinNT
#	Creation time:	15. 06. 2019 21:17

#	Modifying user name:	WinNT
#	Modification time:	15. 06. 2019 21:17

#	Program:	/corina/corina34_cracker 3.40 0067  02.08.2006

@<TRIPOS>MOLECULE
ASD08151061
  45   46    0    0    0
SMALL
NO_CHARGES


@<TRIPOS>ATOM
   1 N1            -0.0154     1.2858     0.0091 N.2     
   2 N2             0.0021    -0.0041     0.0020 N.2     
   3 N3            -1.2016    -0.7210     0.0097 N.pl3   
   4 C4            -2.4800    -0.0059     0.0257 C.3     
   5 C5            -3.0002     0.1411    -1.4056 C.3     
   6 C6            -1.1817    -2.1859     0.0016 C.3     
   7 C7            -1.2868    -2.7052     1.4369 C.3     
   8 C8             1.1465     3.3901     0.0093 C.ar    
   9 C9             1.1588     1.9852     0.0017 C.ar    
  10 C10            2.3896     1.3045    -0.0133 C.ar    
  11 C11            3.5808     2.0314    -0.0203 C.ar    
  12 C12            3.5525     3.4133    -0.0122 C.ar    
  13 C13            2.3486     4.0917     0.0025 C.ar    
  14 C14           -0.1419     4.1225     0.0190 C.ar    
  15 C15           -0.9971     4.0192     1.1151 C.ar    
  16 C16           -2.1969     4.7050     1.1183 C.ar    
  17 C17           -2.5492     5.4935     0.0345 C.ar    
  18 C18           -1.7034     5.5983    -1.0544 C.ar    
  19 C19           -0.5004     4.9218    -1.0656 C.ar    
  20 F20           -3.0277     4.6063     2.1792 F       
  21 C21            2.4202    -0.1272    -0.0208 C.1     
  22 C22            2.4453    -1.3009    -0.0269 C.1     
  23 Cl23           5.1032     1.1974    -0.0387 Cl      
  24 C24            2.3372     5.5986     0.0102 C.3     
  25 N25            2.1053     6.0783     1.3749 N.2     
  26 N26            2.8711     6.7277     1.8801 N.1     
  27 N27            3.6369     7.3771     2.3852 N.pl3   
  28 H28           -3.2025    -0.5663     0.6191 H       
  29 H29           -2.3383     0.9820     0.4640 H       
  30 H30           -3.9514     0.6732    -1.3937 H       
  31 H31           -2.2778     0.7016    -1.9990 H       
  32 H32           -3.1420    -0.8468    -1.8439 H       
  33 H33           -2.0241    -2.5574    -0.5818 H       
  34 H34           -0.2497    -2.5341    -0.4435 H       
  35 H35           -2.2188    -2.3569     1.8820 H       
  36 H36           -1.2720    -3.7951     1.4309 H       
  37 H37           -0.4444    -2.3336     2.0203 H       
  38 H38            4.4794     3.9677    -0.0170 H       
  39 H39           -0.7227     3.4045     1.9596 H       
  40 H40           -3.4878     6.0277     0.0402 H       
  41 H41           -1.9830     6.2142    -1.8964 H       
  42 H42            0.1607     5.0083    -1.9153 H       
  43 H43            2.4677    -2.3506    -0.0324 H       
  44 H44            3.2970     5.9711    -0.3476 H       
  45 H45            1.5416     5.9593    -0.6417 H       
@<TRIPOS>BOND
   1    1    2 2
   2    1    9 1
   3    2    3 1
   4    3    4 1
   5    3    6 1
   6    4    5 1
   7    4   28 1
   8    4   29 1
   9    5   30 1
  10    5   31 1
  11    5   32 1
  12    6    7 1
  13    6   33 1
  14    6   34 1
  15    7   35 1
  16    7   36 1
  17    7   37 1
  18    8    9 ar
  19    8   13 ar
  20    8   14 1
  21    9   10 ar
  22   10   11 ar
  23   10   21 1
  24   11   12 ar
  25   11   23 1
  26   12   13 ar
  27   12   38 1
  28   13   24 1
  29   14   15 ar
  30   14   19 ar
  31   15   16 ar
  32   15   39 1
  33   16   17 ar
  34   16   20 1
  35   17   18 ar
  36   17   40 1
  37   18   19 ar
  38   18   41 1
  39   19   42 1
  40   21   22 3
  41   22   43 1
  42   24   25 1
  43   24   44 1
  44   24   45 1
  45   25   26 2
  46   26   27 2

#	End of record

