#	Name: ASD01884102
#	Creating user name:	WinNT
#	Creation time:	15. 06. 2019 19:47

#	Modifying user name:	WinNT
#	Modification time:	15. 06. 2019 19:47

#	Program:	/corina/corina34_cracker 3.40 0067  02.08.2006

@<TRIPOS>MOLECULE
ASD01884102
  54   57    0    0    0
SMALL
NO_CHARGES


@<TRIPOS>ATOM
   1 C1             2.6194     1.7029    -0.3363 C.2     
   2 C2             1.7147     0.6530    -0.2001 C.2     
   3 C3             0.3689     0.9454     0.0260 C.2     
   4 C4            -0.0431     2.2355     0.1099 C.2     
   5 N5             0.8315     3.2623    -0.0217 N.am    
   6 C6             2.1416     3.0356    -0.2350 C.2     
   7 O7             2.9133     3.9722    -0.3509 O.2     
   8 C8             0.3448     4.6407     0.0751 C.3     
   9 C9             0.4097     5.1033     1.5320 C.3     
  10 C10            4.0082     1.4424    -0.5686 C.1     
  11 N11            5.1099     1.2357    -0.7528 N.1     
  12 C12            2.1815    -0.7767    -0.2957 C.3     
  13 N13            2.4454    -1.2969     1.0525 N.3     
  14 C14            2.6724    -2.7485     1.0218 C.3     
  15 C15            3.0213    -3.2374     2.4295 C.3     
  16 N16            1.9261    -2.8979     3.3487 N.3     
  17 C17            1.6991    -1.4463     3.3794 C.3     
  18 C18            1.3502    -0.9573     1.9717 C.3     
  19 C19            0.0529     6.5617     1.8267 C.3     
  20 C20           -0.9115     5.4426     2.2250 C.3     
  21 C21            0.5432    -1.1304     4.3306 C.3     
  22 C22            3.2184    -4.7546     2.4087 C.3     
  23 C23            2.1748    -3.3880     4.6190 C.ar    
  24 N24            1.3690    -4.3096     5.1258 N.ar    
  25 C25            1.5785    -4.7989     6.3367 C.ar    
  26 C26            2.6557    -4.3360     7.0760 C.ar    
  27 C27            3.4785    -3.3716     6.5155 C.ar    
  28 N28            3.2160    -2.9283     5.2972 N.ar    
  29 H29           -0.3461     0.1432     0.1340 H       
  30 H30           -1.0875     2.4480     0.2844 H       
  31 H31            0.9675     5.2900    -0.5404 H       
  32 H32           -0.6862     4.6874    -0.2754 H       
  33 H33            1.1922     4.6446     2.1365 H       
  34 H34            1.4092    -1.3799    -0.7732 H       
  35 H35            3.0955    -0.8216    -0.8879 H       
  36 H36            1.7688    -3.2506     0.6760 H       
  37 H37            3.4959    -2.9735     0.3441 H       
  38 H38            3.9399    -2.7557     2.7645 H       
  39 H39            2.6027    -0.9441     3.7252 H       
  40 H40            1.2098     0.1235     1.9865 H       
  41 H41            0.4316    -1.4391     1.6367 H       
  42 H42            0.6003     7.0622     2.6253 H       
  43 H43           -0.2281     7.1915     0.9826 H       
  44 H44           -1.8269     5.3363     1.6429 H       
  45 H45           -0.9985     5.2070     3.2857 H       
  46 H46            0.8311    -1.3871     5.3501 H       
  47 H47            0.3079    -0.0675     4.2762 H       
  48 H48           -0.3330    -1.7116     4.0433 H       
  49 H49            3.9590    -5.0144     1.6523 H       
  50 H50            3.5647    -5.0894     3.3864 H       
  51 H51            2.2718    -5.2407     2.1724 H       
  52 H52            0.9181    -5.5498     6.7446 H       
  53 H53            2.8495    -4.7182     8.0673 H       
  54 H54            4.3259    -2.9896     7.0653 H       
@<TRIPOS>BOND
   1    1    2 2
   2    1   10 1
   3    1    6 1
   4    2    3 1
   5    2   12 1
   6    3    4 2
   7    3   29 1
   8    4    5 1
   9    4   30 1
  10    5    6 am
  11    5    8 1
  12    6    7 2
  13    8    9 1
  14    8   31 1
  15    8   32 1
  16    9   19 1
  17    9   20 1
  18    9   33 1
  19   10   11 3
  20   12   13 1
  21   12   34 1
  22   12   35 1
  23   13   14 1
  24   13   18 1
  25   14   15 1
  26   14   36 1
  27   14   37 1
  28   15   16 1
  29   15   22 1
  30   15   38 1
  31   16   17 1
  32   16   23 1
  33   17   18 1
  34   17   21 1
  35   17   39 1
  36   18   40 1
  37   18   41 1
  38   19   20 1
  39   19   42 1
  40   19   43 1
  41   20   44 1
  42   20   45 1
  43   21   46 1
  44   21   47 1
  45   21   48 1
  46   22   49 1
  47   22   50 1
  48   22   51 1
  49   23   24 ar
  50   23   28 ar
  51   24   25 ar
  52   25   26 ar
  53   25   52 1
  54   26   27 ar
  55   26   53 1
  56   27   28 ar
  57   27   54 1

#	End of record

