#	Name: ASD05490136
#	Creating user name:	WinNT
#	Creation time:	15. 06. 2019 21:01

#	Modifying user name:	WinNT
#	Modification time:	15. 06. 2019 21:01

#	Program:	/corina/corina34_cracker 3.40 0067  02.08.2006

@<TRIPOS>MOLECULE
ASD05490136
  66   70    0    0    0
SMALL
NO_CHARGES


@<TRIPOS>ATOM
   1 O1            -2.2343     1.8039     0.4512 O.2     
   2 N2            -0.0269     1.4606     0.0110 N.am    
   3 O3             4.5533     2.9919    -0.9155 O.3     
   4 N4             2.7622     4.4163    -0.5480 N.ar    
   5 C5             1.4848     4.6586    -0.2887 C.ar    
   6 C6             3.2357     3.1827    -0.6482 C.ar    
   7 C7             2.4070     2.0844    -0.4820 C.ar    
   8 C8             1.0597     2.2942    -0.2078 C.ar    
   9 C9             0.5925     3.6072    -0.1103 C.ar    
  10 N10            1.0345     5.9727    -0.1941 N.pl3   
  11 C11           -1.1147     2.2251     0.2272 C.2     
  12 N12           -0.7730     3.5269     0.1666 N.am    
  13 C13            5.3591     4.1613    -1.0743 C.3     
  14 C14            6.8031     3.7496    -1.3679 C.3     
  15 O15            6.8600     3.0774    -2.6276 O.3     
  16 C16            8.1716     2.6486    -2.9988 C.3     
  17 C17            0.0021    -0.0041     0.0020 C.3     
  18 C18            0.1462    -0.5123     1.4134 C.ar    
  19 C19           -0.9749    -0.6630     2.2094 C.ar    
  20 C20           -0.8487    -1.1280     3.5027 C.ar    
  21 C21            0.4110    -1.4463     4.0061 C.ar    
  22 C22            1.5369    -1.2930     3.1997 C.ar    
  23 C23            1.3986    -0.8317     1.9062 C.ar    
  24 C24            0.5529    -1.9462     5.3960 C.ar    
  25 C25            1.8126    -2.2645     5.8993 C.ar    
  26 C26           -0.5723    -2.0937     6.2044 C.ar    
  27 C27           -0.4345    -2.5592     7.4964 C.ar    
  28 C28            0.8179    -2.8786     7.9892 C.ar    
  29 C29            1.9389    -2.7291     7.1928 C.ar    
  30 N30            0.8549    -4.8505     9.4087 N.3     
  31 C31            1.2254    -5.4005    10.7256 C.3     
  32 C32            0.0257    -6.2310    11.2282 C.3     
  33 C33           -0.7357    -6.5720     9.9202 C.3     
  34 C34           -0.5223    -5.2826     9.0887 C.3     
  35 C35            0.9622    -3.3855     9.4011 C.3     
  36 Cl36           3.0398     0.4734    -0.6157 Cl      
  37 H37            1.6549     6.7081    -0.3178 H       
  38 H38            0.1005     6.1529    -0.0045 H       
  39 H39           -1.3738     4.2788     0.2877 H       
  40 H40            4.9755     4.7571    -1.9025 H       
  41 H41            5.3285     4.7508    -0.1579 H       
  42 H42            7.4344     4.6375    -1.4010 H       
  43 H43            7.1571     3.0812    -0.5830 H       
  44 H44            8.5540     1.9573    -2.2478 H       
  45 H45            8.1299     2.1476    -3.9660 H       
  46 H46            8.8314     3.5136    -3.0658 H       
  47 H47           -0.9251    -0.3832    -0.4278 H       
  48 H48            0.8466    -0.3471    -0.5957 H       
  49 H49           -1.9508    -0.4160     1.8182 H       
  50 H50           -1.7247    -1.2447     4.1236 H       
  51 H51            2.5156    -1.5382     3.5848 H       
  52 H52            2.2706    -0.7128     1.2802 H       
  53 H53            2.6886    -2.1482     5.2783 H       
  54 H54           -1.5505    -1.8439     5.8208 H       
  55 H55           -1.3060    -2.6739     8.1238 H       
  56 H56            2.9143    -2.9800     7.5826 H       
  57 H57            2.1032    -6.0392    10.6271 H       
  58 H58            1.4317    -4.5879    11.4222 H       
  59 H59            0.3668    -7.1399    11.7238 H       
  60 H60           -0.6005    -5.6387    11.8954 H       
  61 H61           -0.2918    -7.4348     9.4236 H       
  62 H62           -1.7948    -6.7388    10.1171 H       
  63 H63           -1.2389    -4.5167     9.3854 H       
  64 H64           -0.6148    -5.4979     8.0242 H       
  65 H65            1.9345    -3.0903     9.7955 H       
  66 H66            0.1738    -2.9601    10.0221 H       
@<TRIPOS>BOND
   1    1   11 2
   2    2   17 1
   3    2    8 1
   4    2   11 am
   5    3   13 1
   6    3    6 1
   7    4    5 ar
   8    4    6 ar
   9    5   10 1
  10    5    9 ar
  11    6    7 ar
  12    7    8 ar
  13    7   36 1
  14    8    9 ar
  15    9   12 1
  16   10   37 1
  17   10   38 1
  18   11   12 am
  19   12   39 1
  20   13   14 1
  21   13   40 1
  22   13   41 1
  23   14   15 1
  24   14   42 1
  25   14   43 1
  26   15   16 1
  27   16   44 1
  28   16   45 1
  29   16   46 1
  30   17   18 1
  31   17   47 1
  32   17   48 1
  33   18   19 ar
  34   18   23 ar
  35   19   20 ar
  36   19   49 1
  37   20   21 ar
  38   20   50 1
  39   21   22 ar
  40   21   24 1
  41   22   23 ar
  42   22   51 1
  43   23   52 1
  44   24   25 ar
  45   24   26 ar
  46   25   29 ar
  47   25   53 1
  48   26   27 ar
  49   26   54 1
  50   27   28 ar
  51   27   55 1
  52   28   29 ar
  53   28   35 1
  54   29   56 1
  55   30   31 1
  56   30   34 1
  57   30   35 1
  58   31   32 1
  59   31   57 1
  60   31   58 1
  61   32   33 1
  62   32   59 1
  63   32   60 1
  64   33   34 1
  65   33   61 1
  66   33   62 1
  67   34   63 1
  68   34   64 1
  69   35   65 1
  70   35   66 1

#	End of record

