#	Name: ASD01881924
#	Creating user name:	WinNT
#	Creation time:	15. 06. 2019 19:43

#	Modifying user name:	WinNT
#	Modification time:	15. 06. 2019 19:43

#	Program:	/corina/corina34_cracker 3.40 0067  02.08.2006

@<TRIPOS>MOLECULE
ASD01881924
  44   47    0    0    0
SMALL
NO_CHARGES


@<TRIPOS>ATOM
   1 N1            -0.0161     1.3329     0.0094 N.am    
   2 C2             0.0021    -0.0041     0.0020 C.2     
   3 C3             1.2764    -0.7999     0.0232 C.3     
   4 N4             2.4085     0.0552    -0.3578 N.3     
   5 C5             2.3967     1.2959     0.4340 C.3     
   6 C6             1.1986     2.1432     0.0021 C.3     
   7 O7            -1.0543    -0.5993    -0.0224 O.2     
   8 C8             3.6832    -0.6578    -0.2002 C.3     
   9 C9             3.7478    -1.8142    -1.1999 C.3     
  10 O10            3.7682    -1.2930    -2.5304 O.3     
  11 N11            3.9963    -4.7164    -6.8003 N.pl3   
  12 N12            3.9917    -3.7255    -7.7932 N.2     
  13 N13            3.9388    -2.5654    -7.2400 N.2     
  14 C14            3.9057    -2.6873    -5.8980 C.ar    
  15 C15            3.9416    -4.0589    -5.5925 C.ar    
  16 C16            3.8474    -1.7547    -4.8532 C.ar    
  17 C17            3.8251    -2.1954    -3.5461 C.ar    
  18 C18            3.8610    -3.5579    -3.2592 C.ar    
  19 C19            3.9193    -4.4785    -4.2672 C.ar    
  20 C20            4.0435    -6.1658    -7.0083 C.3     
  21 C21            5.5014    -6.6285    -7.0450 C.3     
  22 C22            5.7629    -8.1332    -7.1369 C.3     
  23 C23            6.0168    -7.2369    -8.3507 C.3     
  24 Br24           3.7986     0.0971    -5.2332 Br      
  25 H25           -0.8744     1.7847     0.0158 H       
  26 H26            1.4412    -1.1924     1.0266 H       
  27 H27            1.1968    -1.6292    -0.6796 H       
  28 H28            2.3093     1.0528     1.4930 H       
  29 H29            3.3187     1.8502     0.2588 H       
  30 H30            1.3710     2.5274    -1.0033 H       
  31 H31            1.0797     2.9792     0.6914 H       
  32 H32            4.5090     0.0291    -0.3853 H       
  33 H33            3.7571    -1.0499     0.8142 H       
  34 H34            4.6522    -2.3965    -1.0239 H       
  35 H35            2.8738    -2.4531    -1.0733 H       
  36 H36            3.8433    -3.8894    -2.2315 H       
  37 H37            3.9470    -5.5328    -4.0344 H       
  38 H38            3.5236    -6.6671    -6.1919 H       
  39 H39            3.5599    -6.4132    -7.9533 H       
  40 H40            6.1991    -6.0314    -6.4577 H       
  41 H41            6.6328    -8.5259    -6.6105 H       
  42 H42            4.8963    -8.7934    -7.1714 H       
  43 H43            5.3173    -7.3076    -9.1836 H       
  44 H44            7.0538    -7.0401    -8.6228 H       
@<TRIPOS>BOND
   1    1    2 am
   2    1    6 1
   3    1   25 1
   4    2    3 1
   5    2    7 2
   6    3    4 1
   7    3   26 1
   8    3   27 1
   9    4    5 1
  10    4    8 1
  11    5    6 1
  12    5   28 1
  13    5   29 1
  14    6   30 1
  15    6   31 1
  16    8    9 1
  17    8   32 1
  18    8   33 1
  19    9   10 1
  20    9   34 1
  21    9   35 1
  22   10   17 1
  23   11   12 1
  24   11   15 1
  25   11   20 1
  26   12   13 2
  27   13   14 1
  28   14   15 ar
  29   14   16 ar
  30   15   19 ar
  31   16   17 ar
  32   16   24 1
  33   17   18 ar
  34   18   19 ar
  35   18   36 1
  36   19   37 1
  37   20   21 1
  38   20   38 1
  39   20   39 1
  40   21   22 1
  41   21   23 1
  42   21   40 1
  43   22   23 1
  44   22   41 1
  45   22   42 1
  46   23   43 1
  47   23   44 1

#	End of record

