#	Name: ASD04910539
#	Creating user name:	WinNT
#	Creation time:	15. 06. 2019 20:56

#	Modifying user name:	WinNT
#	Modification time:	15. 06. 2019 20:56

#	Program:	/corina/corina34_cracker 3.40 0067  02.08.2006

@<TRIPOS>MOLECULE
ASD04910539
  22   21    0    0    0
SMALL
NO_CHARGES


@<TRIPOS>ATOM
   1 N1            -0.0176     1.4498     0.0100 N.3     
   2 N2            -0.7771     1.9936    -1.1042 N.3     
   3 C3             1.1582     2.1846     0.2232 C.ar    
   4 C4             1.1662     3.5589     0.0183 C.ar    
   5 C5             2.3264     4.2822     0.2288 C.ar    
   6 C6             3.4814     3.6363     0.6438 C.ar    
   7 C7             3.4750     2.2645     0.8483 C.ar    
   8 C8             2.3145     1.5397     0.6449 C.ar    
   9 O9             4.6214     4.3485     0.8500 O.3     
  10 C10            5.7738     3.6192     1.2768 C.3     
  11 F11            2.3070     0.2043     0.8500 F       
  12 F12            0.0415     4.1883    -0.3868 F       
  13 H13           -0.5792     1.4150     0.8476 H       
  14 H14           -0.2746     1.8837    -1.9723 H       
  15 H15           -1.6913     1.5702    -1.1596 H       
  16 H16            2.3328     5.3504     0.0697 H       
  17 H17            4.3752     1.7627     1.1711 H       
  18 H18            6.6113     4.3051     1.4038 H       
  19 H19            5.5609     3.1261     2.2253 H       
  20 H20            6.0280     2.8702     0.5269 H       
  21 Cl21          11.6113    10.3504     7.2253 Cl      
  22 H22           11.6113    11.7204     7.2253 H       
@<TRIPOS>BOND
   1    1    2 1
   2    1    3 1
   3    1   13 1
   4    2   14 1
   5    2   15 1
   6    3    4 ar
   7    3    8 ar
   8    4    5 ar
   9    4   12 1
  10    5    6 ar
  11    5   16 1
  12    6    7 ar
  13    6    9 1
  14    7    8 ar
  15    7   17 1
  16    8   11 1
  17    9   10 1
  18   10   18 1
  19   10   19 1
  20   10   20 1
  21   21   22 1

#	End of record

