#	Name: ASD01881312
#	Creating user name:	WinNT
#	Creation time:	15. 06. 2019 19:42

#	Modifying user name:	WinNT
#	Modification time:	15. 06. 2019 19:42

#	Program:	/corina/corina34_cracker 3.40 0067  02.08.2006

@<TRIPOS>MOLECULE
ASD01881312
  61   63    0    0    0
SMALL
NO_CHARGES


@<TRIPOS>ATOM
   1 C1            -0.0180     1.4732     0.0101 C.2     
   2 C2             0.0021    -0.0041     0.0020 C.ar    
   3 C3             1.2187    -0.6881    -0.0133 C.ar    
   4 C4             1.2294    -2.0724    -0.0209 C.ar    
   5 C5             0.0327    -2.7768    -0.0133 C.ar    
   6 C6            -1.1732    -2.1008     0.0019 C.ar    
   7 C7            -1.1958    -0.7211     0.0154 C.ar    
   8 O8             1.0256     2.0948     0.0035 O.2     
   9 O9            -1.1936     2.1308     0.0193 O.3     
  10 O10            2.4118    -2.7424    -0.0362 O.3     
  11 C11            2.3485    -4.1700    -0.0433 C.3     
  12 C12            3.7669    -4.7433    -0.0604 C.3     
  13 C13            3.6991    -6.2718    -0.0680 C.3     
  14 C14            5.1175    -6.8451    -0.0852 C.3     
  15 O15            5.0542    -8.2727    -0.0923 O.3     
  16 C16            6.2345    -8.9415    -0.1076 C.ar    
  17 C17            6.2416   -10.3293    -0.1151 C.ar    
  18 C18            7.4443   -11.0135    -0.1312 C.ar    
  19 C19            8.6531   -10.2940    -0.1398 C.ar    
  20 C20            8.6264    -8.8929    -0.1319 C.ar    
  21 C21            7.4325    -8.2321    -0.1214 C.ar    
  22 C22            4.9409   -11.0903    -0.1054 C.3     
  23 O23            7.4575   -12.3695    -0.1382 O.3     
  24 C24            9.9334   -11.0057    -0.1563 C.2     
  25 O25            9.9530   -12.2189    -0.1627 O.2     
  26 C26           11.2260   -10.2311    -0.1654 C.3     
  27 C27           12.4048   -11.2063    -0.1823 C.3     
  28 C28           13.7276   -10.4320    -0.3177 C.3     
  29 C29           14.5575   -10.7535     0.9424 C.3     
  30 C30           13.9946   -12.1110     1.4318 C.3     
  31 C31           12.4770   -11.9713     1.1554 C.3     
  32 H32            2.1488    -0.1391    -0.0195 H       
  33 H33            0.0441    -3.8567    -0.0196 H       
  34 H34           -2.1005    -2.6544     0.0077 H       
  35 H35           -2.1395    -0.1963     0.0321 H       
  36 H36           -1.1561     3.0971     0.0244 H       
  37 H37            1.8279    -4.5150     0.8501 H       
  38 H38            1.8102    -4.5054    -0.9298 H       
  39 H39            4.2875    -4.3983    -0.9538 H       
  40 H40            4.3051    -4.4079     0.8261 H       
  41 H41            3.1785    -6.6168     0.8253 H       
  42 H42            3.1609    -6.6072    -0.9545 H       
  43 H43            5.6381    -6.5001    -0.9785 H       
  44 H44            5.6557    -6.5097     0.8013 H       
  45 H45            9.5514    -8.3356    -0.1384 H       
  46 H46            7.4168    -7.1522    -0.1199 H       
  47 H47            4.6163   -11.2682    -1.1306 H       
  48 H48            5.0821   -12.0447     0.4019 H       
  49 H49            4.1834   -10.5084     0.4197 H       
  50 H50            7.4521   -12.7583    -1.0236 H       
  51 H51           11.2646    -9.5991    -1.0527 H       
  52 H52           11.2826    -9.6081     0.7272 H       
  53 H53           12.2967   -11.9082    -1.0092 H       
  54 H54           14.2618   -10.7587    -1.2099 H       
  55 H55           13.5298    -9.3615    -0.3715 H       
  56 H56           15.6137   -10.8471     0.6900 H       
  57 H57           14.4123    -9.9845     1.7011 H       
  58 H58           14.4178   -12.9345     0.8566 H       
  59 H59           14.1825   -12.2456     2.4970 H       
  60 H60           11.9958   -11.3990     1.9486 H       
  61 H61           12.0149   -12.9538     1.0584 H       
@<TRIPOS>BOND
   1    1    2 1
   2    1    8 2
   3    1    9 1
   4    2    3 ar
   5    2    7 ar
   6    3    4 ar
   7    3   32 1
   8    4    5 ar
   9    4   10 1
  10    5    6 ar
  11    5   33 1
  12    6    7 ar
  13    6   34 1
  14    7   35 1
  15    9   36 1
  16   10   11 1
  17   11   12 1
  18   11   37 1
  19   11   38 1
  20   12   13 1
  21   12   39 1
  22   12   40 1
  23   13   14 1
  24   13   41 1
  25   13   42 1
  26   14   15 1
  27   14   43 1
  28   14   44 1
  29   15   16 1
  30   16   17 ar
  31   16   21 ar
  32   17   18 ar
  33   17   22 1
  34   18   19 ar
  35   18   23 1
  36   19   20 ar
  37   19   24 1
  38   20   21 ar
  39   20   45 1
  40   21   46 1
  41   22   47 1
  42   22   48 1
  43   22   49 1
  44   23   50 1
  45   24   25 2
  46   24   26 1
  47   26   27 1
  48   26   51 1
  49   26   52 1
  50   27   28 1
  51   27   31 1
  52   27   53 1
  53   28   29 1
  54   28   54 1
  55   28   55 1
  56   29   30 1
  57   29   56 1
  58   29   57 1
  59   30   31 1
  60   30   58 1
  61   30   59 1
  62   31   60 1
  63   31   61 1

#	End of record

