#	Name: ASD01812772
#	Creating user name:	WinNT
#	Creation time:	15. 06. 2019 19:29

#	Modifying user name:	WinNT
#	Modification time:	15. 06. 2019 19:29

#	Program:	/corina/corina34_cracker 3.40 0067  02.08.2006

@<TRIPOS>MOLECULE
ASD01812772
  61   66    0    0    0
SMALL
NO_CHARGES


@<TRIPOS>ATOM
   1 N1            -0.0158     1.3147     0.0093 N.ar    
   2 C2             0.0021    -0.0041     0.0020 C.ar    
   3 C3             1.1989    -0.7033    -0.0127 C.ar    
   4 C4             2.3829    -0.0013    -0.0202 C.ar    
   5 C5             2.3448     1.3978    -0.0128 C.ar    
   6 C6             1.0955     2.0332     0.0025 C.ar    
   7 C7             3.8373    -0.3889    -0.0363 C.3     
   8 N8             4.5955     0.8684    -0.0373 N.am    
   9 C9             3.7280     1.8961    -0.0237 C.2     
  10 C10            6.0558     0.9844    -0.0504 C.3     
  11 C11            6.5432     1.0311    -1.4757 C.ar    
  12 C12            6.6712     2.2479    -2.1207 C.ar    
  13 C13            7.1172     2.2963    -3.4260 C.ar    
  14 C14            7.4390     1.1168    -4.0936 C.ar    
  15 C15            7.3088    -0.1059    -3.4392 C.ar    
  16 C16            6.8664    -0.1426    -2.1322 C.ar    
  17 O17            1.0255     3.3856     0.0100 O.3     
  18 O18            4.0429     3.0706    -0.0212 O.2     
  19 C19            7.9188     1.1628    -5.4980 C.2     
  20 C20            9.0227     0.5433    -5.9912 C.2     
  21 C21            7.3088     1.8525    -6.5663 C.2     
  22 N22            8.0257     1.6527    -7.6426 N.2     
  23 N23            9.1071     0.8350    -7.3084 N.pl3   
  24 C24           10.0066    -0.3230    -5.2450 C.3     
  25 C25           10.8347    -1.1028    -6.2749 C.3     
  26 C26           11.3443    -0.1351    -7.3470 C.3     
  27 C27           10.1694     0.3554    -8.1982 C.3     
  28 C28           -0.2795     3.9677     0.0251 C.3     
  29 C29           -0.1576     5.4928     0.0317 C.3     
  30 O30            0.4061     5.9406    -1.2066 O.3     
  31 C31           -0.5326     6.7798    -1.8980 C.3     
  32 C32           -1.4572     7.3488    -0.7925 C.3     
  33 C33           -1.5578     6.1295     0.1641 C.3     
  34 H34           -0.9309    -0.5480     0.0080 H       
  35 H35            1.2023    -1.7833    -0.0178 H       
  36 H36            4.0797    -0.9721     0.8522 H       
  37 H37            4.0624    -0.9631    -0.9351 H       
  38 H38            6.3524     1.8979     0.4651 H       
  39 H39            6.4932     0.1235     0.4552 H       
  40 H40            6.4214     3.1618    -1.6022 H       
  41 H41            7.2161     3.2469    -3.9290 H       
  42 H42            7.5569    -1.0233    -3.9522 H       
  43 H43            6.7686    -1.0898    -1.6226 H       
  44 H44            6.4064     2.4427    -6.5065 H       
  45 H45           10.6644     0.3030    -4.6420 H       
  46 H46            9.4692    -1.0196    -4.6016 H       
  47 H47           11.6822    -1.5754    -5.7783 H       
  48 H48           10.2117    -1.8667    -6.7401 H       
  49 H49           11.8238     0.7182    -6.8674 H       
  50 H50           12.0662    -0.6462    -7.9839 H       
  51 H51            9.7936    -0.4688    -8.8046 H       
  52 H52           10.4979     1.1680    -8.8461 H       
  53 H53           -0.8289     3.6509    -0.8614 H       
  54 H54           -0.8123     3.6419     0.9185 H       
  55 H55            0.4741     5.8096     0.8615 H       
  56 H56           -0.0114     7.5893    -2.4091 H       
  57 H57           -1.1118     6.1925    -2.6105 H       
  58 H58           -0.9957     8.2016    -0.2948 H       
  59 H59           -2.4347     7.6134    -1.1957 H       
  60 H60           -2.3315     5.4378    -0.1690 H       
  61 H61           -1.7409     6.4542     1.1884 H       
@<TRIPOS>BOND
   1    1    2 ar
   2    1    6 ar
   3    2    3 ar
   4    2   34 1
   5    3    4 ar
   6    3   35 1
   7    4    7 1
   8    4    5 ar
   9    5    6 ar
  10    5    9 1
  11    6   17 1
  12    7    8 1
  13    7   36 1
  14    7   37 1
  15    8    9 am
  16    8   10 1
  17    9   18 2
  18   10   11 1
  19   10   38 1
  20   10   39 1
  21   11   12 ar
  22   11   16 ar
  23   12   13 ar
  24   12   40 1
  25   13   14 ar
  26   13   41 1
  27   14   15 ar
  28   14   19 1
  29   15   16 ar
  30   15   42 1
  31   16   43 1
  32   17   28 1
  33   19   21 1
  34   19   20 2
  35   20   24 1
  36   20   23 1
  37   21   22 2
  38   21   44 1
  39   22   23 1
  40   23   27 1
  41   24   25 1
  42   24   45 1
  43   24   46 1
  44   25   26 1
  45   25   47 1
  46   25   48 1
  47   26   27 1
  48   26   49 1
  49   26   50 1
  50   27   51 1
  51   27   52 1
  52   28   29 1
  53   28   53 1
  54   28   54 1
  55   29   30 1
  56   29   33 1
  57   29   55 1
  58   30   31 1
  59   31   32 1
  60   31   56 1
  61   31   57 1
  62   32   33 1
  63   32   58 1
  64   32   59 1
  65   33   60 1
  66   33   61 1

#	End of record

