#	Name: ASD01152515
#	Creating user name:	WinNT
#	Creation time:	15. 06. 2019 19:06

#	Modifying user name:	WinNT
#	Modification time:	15. 06. 2019 19:06

#	Program:	/corina/corina34_cracker 3.40 0067  02.08.2006

@<TRIPOS>MOLECULE
ASD01152515
  49   51    0    0    0
SMALL
NO_CHARGES


@<TRIPOS>ATOM
   1 C1            -0.3500     1.3556    -0.0017 C.2     
   2 N2            -0.3386     0.0564    -0.1371 N.2     
   3 N3            -1.3668    -0.7401     0.3665 N.am    
   4 C4            -2.5198    -0.2264     0.8263 C.2     
   5 C5            -2.7983     1.2530     0.7015 C.3     
   6 C6            -1.4653     1.9778     0.7282 C.2     
   7 C7            -3.5205     1.5349    -0.6175 C.3     
   8 O8            -1.3288     3.0284     1.3206 O.2     
   9 C9            -1.1908    -2.1281     0.3935 C.ar    
  10 O10           -3.3408    -0.9537     1.3434 O.2     
  11 C11           -3.9036     2.9910    -0.6793 C.ar    
  12 C12           -2.1830    -2.9638    -0.0989 C.ar    
  13 C13           -0.0196    -2.6709     0.9084 C.ar    
  14 C14            0.1550    -4.0408     0.9349 C.ar    
  15 C15           -0.8335    -4.8759     0.4500 C.ar    
  16 C16           -2.0045    -4.3396    -0.0703 C.ar    
  17 C17           -3.0331     3.9225    -1.2280 C.ar    
  18 C18           -5.1265     3.4117    -0.1959 C.ar    
  19 N19           -5.4729     4.6840    -0.2451 N.ar    
  20 C20           -4.6705     5.6028    -0.7552 C.ar    
  21 C21           -3.4253     5.2511    -1.2654 C.ar    
  22 F22           -2.6075     6.1922    -1.7859 F       
  23 O23            0.6503     2.1157    -0.5193 O.3     
  24 C24            1.6972     1.4289    -1.2079 C.3     
  25 N25           -3.0026    -5.1858    -0.5659 N.am    
  26 C26           -3.2337    -6.3743     0.0262 C.2     
  27 O27           -2.5218    -6.7480     0.9343 O.2     
  28 C28           -4.3766    -7.2389    -0.4400 C.3     
  29 O29           -5.0675     6.9004    -0.7857 O.3     
  30 C30           -6.3593     7.1963    -0.2511 C.3     
  31 H31           -3.4134     1.5846     1.5381 H       
  32 H32           -2.8599     1.2973    -1.4514 H       
  33 H33           -4.4184     0.9200    -0.6787 H       
  34 H34           -3.0924    -2.5444    -0.5033 H       
  35 H35            0.7550    -2.0209     1.2878 H       
  36 H36            1.0662    -4.4601     1.3352 H       
  37 H37           -0.6937    -5.9466     0.4719 H       
  38 H38           -2.0722     3.6189    -1.6164 H       
  39 H39           -5.8088     2.6897     0.2278 H       
  40 H40            2.1829     0.7302    -0.5266 H       
  41 H41            1.2785     0.8813    -2.0523 H       
  42 H42            2.4288     2.1511    -1.5700 H       
  43 H43           -3.5282    -4.9170    -1.3355 H       
  44 H44           -4.8986    -6.7413    -1.2573 H       
  45 H45           -3.9895    -8.1972    -0.7862 H       
  46 H46           -5.0683    -7.4034     0.3862 H       
  47 H47           -7.1176     6.6448    -0.8070 H       
  48 H48           -6.3939     6.9040     0.7984 H       
  49 H49           -6.5518     8.2657    -0.3370 H       
@<TRIPOS>BOND
   1    1    2 2
   2    1   23 1
   3    1    6 1
   4    2    3 1
   5    3    4 am
   6    3    9 1
   7    4    5 1
   8    4   10 2
   9    5    6 1
  10    5    7 1
  11    5   31 1
  12    6    8 2
  13    7   11 1
  14    7   32 1
  15    7   33 1
  16    9   12 ar
  17    9   13 ar
  18   11   17 ar
  19   11   18 ar
  20   12   16 ar
  21   12   34 1
  22   13   14 ar
  23   13   35 1
  24   14   15 ar
  25   14   36 1
  26   15   16 ar
  27   15   37 1
  28   16   25 1
  29   17   21 ar
  30   17   38 1
  31   18   19 ar
  32   18   39 1
  33   19   20 ar
  34   20   21 ar
  35   20   29 1
  36   21   22 1
  37   23   24 1
  38   24   40 1
  39   24   41 1
  40   24   42 1
  41   25   26 am
  42   25   43 1
  43   26   27 2
  44   26   28 1
  45   28   44 1
  46   28   45 1
  47   28   46 1
  48   29   30 1
  49   30   47 1
  50   30   48 1
  51   30   49 1

#	End of record

