#	Name: ASD02610042
#	Creating user name:	WinNT
#	Creation time:	15. 06. 2019 20:25

#	Modifying user name:	WinNT
#	Modification time:	15. 06. 2019 20:25

#	Program:	/corina/corina34_cracker 3.40 0067  02.08.2006

@<TRIPOS>MOLECULE
ASD02610042
 106  108    0    0    0
SMALL
NO_CHARGES


@<TRIPOS>ATOM
   1 C1             0.2224     1.0560    -0.3111 C.3     
   2 C2             0.5045    -0.4221    -0.5233 C.2     
   3 C3             1.9503    -0.5744    -0.6767 C.2     
   4 C4             2.5929     0.5777    -0.5455 C.2     
   5 C5             1.6119     1.6611    -0.1863 C.3     
   6 C6             4.0504     0.8525    -0.8253 C.3     
   7 C7             4.5531     1.9321     0.1157 C.3     
   8 C8             4.2859     3.3306    -0.3504 C.3     
   9 C9             2.9039     3.8135    -0.0091 C.3     
  10 C10            1.8412     3.0014    -0.7539 C.3     
  11 O11           -0.3190    -1.3124    -0.5586 O.2     
  12 C12            2.6319    -1.8900    -0.9515 C.3     
  13 O13           -0.5379     1.2626     0.9086 O.3     
  14 H14            1.7477     1.7962     0.8867 H       
  15 O15            0.5901     3.7377    -0.7245 O.3     
  16 C16            2.2778     2.8464    -2.2120 C.3     
  17 O17            4.4558     3.3827    -1.7915 O.3     
  18 O18            4.8926    -0.2984    -0.5365 O.3     
  19 C19            6.1287     0.1443    -0.2252 C.2     
  20 C20            6.0517     1.5936     0.2261 C.3     
  21 O21            3.9409     1.7569     1.3949 O.3     
  22 C22           -1.8756     1.2734     0.7984 C.2     
  23 C23           -2.7308     1.4825     2.0215 C.3     
  24 C24           -4.2076     1.4511     1.6227 C.3     
  25 C25           -5.0758     1.6634     2.8644 C.3     
  26 C26           -6.5526     1.6320     2.4657 C.3     
  27 C27           -7.4208     1.8444     3.7074 C.3     
  28 O28           -2.3941     1.1154    -0.2815 O.2     
  29 O29            6.8207     2.4307    -0.6400 O.3     
  30 C30           -8.8976     1.8130     3.3086 C.3     
  31 C31           -9.7658     2.0253     4.5504 C.3     
  32 C32            6.5290     1.7322     1.6731 C.3     
  33 C33            0.0828     4.0292     0.4836 C.2     
  34 C34           -1.1968     4.8177     0.5933 C.3     
  35 O35            0.6520     3.6593     1.4831 O.2     
  36 H36            4.1771     1.1714    -1.8599 H       
  37 O37            7.1414    -0.5112    -0.2941 O.2     
  38 C38            4.8689     4.5477    -2.3147 C.2     
  39 C39            5.0674     4.6771    -3.8030 C.3     
  40 O40            5.0815     5.4927    -1.5925 O.2     
  41 C41            5.5375     6.0951    -4.1334 C.3     
  42 C42            5.7391     6.2264    -5.6444 C.3     
  43 C43            6.2092     7.6444    -5.9748 C.3     
  44 C44            6.4108     7.7758    -7.4858 C.3     
  45 C45            6.8808     9.1938    -7.8162 C.3     
  46 C46            7.0824     9.3251    -9.3272 C.3     
  47 C47            7.5525    10.7431    -9.6576 C.3     
  48 C48            7.7541    10.8745   -11.1686 C.3     
  49 C49            8.2242    12.2925   -11.4990 C.3     
  50 C50            8.4227    12.4218   -12.9873 C.2     
  51 O51            8.8358    13.5869   -13.5105 O.3     
  52 O52            8.2101    11.4768   -13.7095 O.2     
  53 H53           -0.3038     1.4743    -1.1691 H       
  54 H54            5.0140     3.9984     0.1100 H       
  55 H55            2.7443     3.7129     1.0645 H       
  56 H56            2.8125     4.8634    -0.2871 H       
  57 H57            1.8842    -2.6806    -1.0142 H       
  58 H58            3.1749    -1.8279    -1.8946 H       
  59 H59            3.3298    -2.1132    -0.1445 H       
  60 H60            1.4442     2.4663    -2.8025 H       
  61 H61            2.5883     3.8153    -2.6033 H       
  62 H62            3.1121     2.1473    -2.2691 H       
  63 H63            4.2123     2.4107     2.0537 H       
  64 H64           -2.5325     0.6902     2.7433 H       
  65 H65           -2.4956     2.4484     2.4684 H       
  66 H66           -4.4059     2.2434     0.9009 H       
  67 H67           -4.4428     0.4852     1.1757 H       
  68 H68           -4.8775     0.8711     3.5863 H       
  69 H69           -4.8406     2.6294     3.3114 H       
  70 H70           -6.7509     2.4243     1.7438 H       
  71 H71           -6.7878     0.6661     2.0187 H       
  72 H72           -7.2225     1.0521     4.4292 H       
  73 H73           -7.1856     2.8103     4.1544 H       
  74 H74            7.7720     2.2595    -0.6098 H       
  75 H75           -9.0959     2.6053     2.5868 H       
  76 H76           -9.1328     0.8471     2.8617 H       
  77 H77           -9.5675     1.2330     5.2722 H       
  78 H78           -9.5306     2.9912     4.9974 H       
  79 H79          -10.8179     2.0029     4.2663 H       
  80 H80            5.9648     1.0498     2.3087 H       
  81 H81            7.5899     1.4890     1.7307 H       
  82 H82            6.3723     2.7567     2.0109 H       
  83 H83           -1.5606     5.0606    -0.4051 H       
  84 H84           -1.9453     4.2243     1.1184 H       
  85 H85           -1.0099     5.7384     1.1459 H       
  86 H86            5.8183     3.9592    -4.1331 H       
  87 H87            4.1253     4.4783    -4.3138 H       
  88 H88            4.7866     6.8130    -3.8033 H       
  89 H89            6.4796     6.2939    -3.6225 H       
  90 H90            6.4899     5.5086    -5.9745 H       
  91 H91            4.7970     6.0277    -6.1553 H       
  92 H92            5.4583     8.3623    -5.6447 H       
  93 H93            7.1513     7.8432    -5.4639 H       
  94 H94            7.1616     7.0579    -7.8159 H       
  95 H95            5.4686     7.5770    -7.9967 H       
  96 H96            6.1300     9.9117    -7.4861 H       
  97 H97            7.8229     9.3926    -7.3053 H       
  98 H98            7.8333     8.6073    -9.6573 H       
  99 H99            6.1403     9.1263    -9.8381 H       
 100 H100           6.8016    11.4610    -9.3275 H       
 101 H101           8.4946    10.9419    -9.1467 H       
 102 H102           8.5049    10.1566   -11.4987 H       
 103 H103           6.8120    10.6757   -11.6795 H       
 104 H104           7.4733    13.0103   -11.1689 H       
 105 H105           9.1663    12.4913   -10.9882 H       
 106 H106           8.9489    13.6216   -14.4702 H       
@<TRIPOS>BOND
   1    1    2 1
   2    1    5 1
   3    1   13 1
   4    1   53 1
   5    2    3 1
   6    2   11 2
   7    3    4 2
   8    3   12 1
   9    4    5 1
  10    4    6 1
  11    5   10 1
  12    5   14 1
  13    6    7 1
  14    6   18 1
  15    6   36 1
  16    7   20 1
  17    7   21 1
  18    7    8 1
  19    8    9 1
  20    8   17 1
  21    8   54 1
  22    9   10 1
  23    9   55 1
  24    9   56 1
  25   10   15 1
  26   10   16 1
  27   12   57 1
  28   12   58 1
  29   12   59 1
  30   13   22 1
  31   15   33 1
  32   16   60 1
  33   16   61 1
  34   16   62 1
  35   17   38 1
  36   18   19 1
  37   19   20 1
  38   19   37 2
  39   20   29 1
  40   20   32 1
  41   21   63 1
  42   22   23 1
  43   22   28 2
  44   23   24 1
  45   23   64 1
  46   23   65 1
  47   24   25 1
  48   24   66 1
  49   24   67 1
  50   25   26 1
  51   25   68 1
  52   25   69 1
  53   26   27 1
  54   26   70 1
  55   26   71 1
  56   27   30 1
  57   27   72 1
  58   27   73 1
  59   29   74 1
  60   30   31 1
  61   30   75 1
  62   30   76 1
  63   31   77 1
  64   31   78 1
  65   31   79 1
  66   32   80 1
  67   32   81 1
  68   32   82 1
  69   33   34 1
  70   33   35 2
  71   34   83 1
  72   34   84 1
  73   34   85 1
  74   38   39 1
  75   38   40 2
  76   39   41 1
  77   39   86 1
  78   39   87 1
  79   41   42 1
  80   41   88 1
  81   41   89 1
  82   42   43 1
  83   42   90 1
  84   42   91 1
  85   43   44 1
  86   43   92 1
  87   43   93 1
  88   44   45 1
  89   44   94 1
  90   44   95 1
  91   45   46 1
  92   45   96 1
  93   45   97 1
  94   46   47 1
  95   46   98 1
  96   46   99 1
  97   47   48 1
  98   47  100 1
  99   47  101 1
 100   48   49 1
 101   48  102 1
 102   48  103 1
 103   49   50 1
 104   49  104 1
 105   49  105 1
 106   50   51 1
 107   50   52 2
 108   51  106 1

#	End of record

