#	Name: ASD03130019
#	Creating user name:	WinNT
#	Creation time:	15. 06. 2019 20:33

#	Modifying user name:	WinNT
#	Modification time:	15. 06. 2019 20:33

#	Program:	/corina/corina34_cracker 3.40 0067  02.08.2006

@<TRIPOS>MOLECULE
ASD03130019
  82   85    0    0    0
SMALL
NO_CHARGES


@<TRIPOS>ATOM
   1 C1             1.5477     0.2679    -0.2012 C.ar    
   2 C2             0.0962     0.0014     0.1043 C.3     
   3 C3            -0.5783     1.3006     0.5492 C.3     
   4 C4            -0.5891    -0.5228    -1.1313 C.2     
   5 N5            -0.5432    -1.8383    -1.4206 N.am    
   6 O6            -1.1819     0.2392    -1.8654 O.2     
   7 C7            -1.2814    -2.3611    -2.5730 C.3     
   8 C8            -0.7871    -1.6942    -3.8308 C.2     
   9 C9            -2.7736    -2.0735    -2.3958 C.3     
  10 C10           -3.2952    -2.8394    -1.2074 C.ar    
  11 N11           -1.0060    -2.2701    -5.0295 N.am    
  12 O12           -0.1924    -0.6394    -3.7644 O.2     
  13 C13           -0.5256    -1.6218    -6.2523 C.3     
  14 C14           -1.5402    -0.6085    -6.7156 C.2     
  15 C15           -0.3230    -2.6759    -7.3425 C.3     
  16 C16            0.7789    -3.6184    -6.9316 C.ar    
  17 N17           -1.3101     0.1149    -7.8292 N.am    
  18 O18           -2.5639    -0.4440    -6.0864 O.2     
  19 C19           -2.2965     1.1000    -8.2796 C.3     
  20 C20            3.8666    -0.1517     0.2219 C.ar    
  21 C21            4.2105     0.7565    -0.7619 C.ar    
  22 C22            3.2229     1.4252    -1.4608 C.ar    
  23 C23            1.8915     1.1807    -1.1807 C.ar    
  24 C24            2.5352    -0.3961     0.5021 C.ar    
  25 C25           -2.0742     1.0542     0.7548 C.3     
  26 C26           -2.7487     2.3534     1.1998 C.3     
  27 C27           -2.1247     2.8280     2.5137 C.3     
  28 C28           -0.6287     3.0744     2.3081 C.3     
  29 C29            0.0458     1.7752     1.8631 C.3     
  30 C30            2.0893    -3.3401    -7.2727 C.ar    
  31 C31            0.4797    -4.7578    -6.2087 C.ar    
  32 C32            1.4903    -5.6224    -5.8306 C.ar    
  33 C33            2.8000    -5.3478    -6.1757 C.ar    
  34 C34            3.1005    -4.2049    -6.8951 C.ar    
  35 C35           -4.2709    -4.8261    -0.2933 C.ar    
  36 C36           -3.7919    -4.1196    -1.3770 C.ar    
  37 C37           -3.2700    -2.2614     0.0495 C.ar    
  38 C38           -3.7455    -2.9573     1.1417 C.ar    
  39 C39           -4.2528    -4.2471     0.9766 C.ar    
  40 C40           -4.7645    -4.9985     2.1426 C.2     
  41 O41           -5.2023    -6.1230     1.9964 O.2     
  42 N42           -4.7457    -4.4366     3.3674 N.am    
  43 Br43           4.8931    -3.8251    -7.3619 Br      
  44 H44            0.0226    -0.7379     0.9019 H       
  45 H45           -0.4376     2.0637    -0.2163 H       
  46 H46           -0.0213    -2.4390    -0.8659 H       
  47 H47           -1.1251    -3.4373    -2.6468 H       
  48 H48           -2.9211    -1.0058    -2.2332 H       
  49 H49           -3.3121    -2.3823    -3.2919 H       
  50 H50           -1.4817    -3.1138    -5.0826 H       
  51 H51            0.4215    -1.1215    -6.0502 H       
  52 H52           -1.2473    -3.2365    -7.4822 H       
  53 H53           -0.0512    -2.1847    -8.2769 H       
  54 H54           -0.4913    -0.0166    -8.3324 H       
  55 H55           -3.2435     0.5997    -8.4817 H       
  56 H56           -2.4408     1.8510    -7.5029 H       
  57 H57           -1.9390     1.5824    -9.1894 H       
  58 H58            4.6381    -0.6742     0.7680 H       
  59 H59            5.2507     0.9475    -0.9808 H       
  60 H60            3.4916     2.1348    -2.2294 H       
  61 H61            1.1200     1.7026    -1.7273 H       
  62 H62            2.2666    -1.1057     1.2707 H       
  63 H63           -2.5188     0.7161    -0.1812 H       
  64 H64           -2.2149     0.2911     1.5203 H       
  65 H65           -2.6080     3.1165     0.4343 H       
  66 H66           -3.8144     2.1779     1.3463 H       
  67 H67           -2.6052     3.7536     2.8307 H       
  68 H68           -2.2654     2.0649     3.2792 H       
  69 H69           -0.4880     3.8375     1.5425 H       
  70 H70           -0.1842     3.4125     3.2441 H       
  71 H71           -0.0949     1.0121     2.6286 H       
  72 H72            1.1115     1.9507     1.7166 H       
  73 H73            2.3234    -2.4478    -7.8343 H       
  74 H74           -0.5437    -4.9728    -5.9389 H       
  75 H75            1.2561    -6.5123    -5.2652 H       
  76 H76            3.5893    -6.0230    -5.8800 H       
  77 H77           -4.6589    -5.8251    -0.4271 H       
  78 H78           -3.8050    -4.5666    -2.3601 H       
  79 H79           -2.8769    -1.2635     0.1758 H       
  80 H80           -3.7250    -2.5052     2.1223 H       
  81 H81           -4.3964    -3.5392     3.4841 H       
  82 H82           -5.0815    -4.9295     4.1324 H       
@<TRIPOS>BOND
   1    1    2 1
   2    1   24 ar
   3    1   23 ar
   4    2    3 1
   5    2    4 1
   6    2   44 1
   7    3   25 1
   8    3   29 1
   9    3   45 1
  10    4    5 am
  11    4    6 2
  12    5    7 1
  13    5   46 1
  14    7    8 1
  15    7    9 1
  16    7   47 1
  17    8   11 am
  18    8   12 2
  19    9   10 1
  20    9   48 1
  21    9   49 1
  22   10   37 ar
  23   10   36 ar
  24   11   13 1
  25   11   50 1
  26   13   14 1
  27   13   15 1
  28   13   51 1
  29   14   17 am
  30   14   18 2
  31   15   16 1
  32   15   52 1
  33   15   53 1
  34   16   31 ar
  35   16   30 ar
  36   17   19 1
  37   17   54 1
  38   19   55 1
  39   19   56 1
  40   19   57 1
  41   20   21 ar
  42   20   24 ar
  43   20   58 1
  44   21   22 ar
  45   21   59 1
  46   22   23 ar
  47   22   60 1
  48   23   61 1
  49   24   62 1
  50   25   26 1
  51   25   63 1
  52   25   64 1
  53   26   27 1
  54   26   65 1
  55   26   66 1
  56   27   28 1
  57   27   67 1
  58   27   68 1
  59   28   29 1
  60   28   69 1
  61   28   70 1
  62   29   71 1
  63   29   72 1
  64   30   34 ar
  65   30   73 1
  66   31   32 ar
  67   31   74 1
  68   32   33 ar
  69   32   75 1
  70   33   34 ar
  71   33   76 1
  72   34   43 1
  73   35   36 ar
  74   35   39 ar
  75   35   77 1
  76   36   78 1
  77   37   38 ar
  78   37   79 1
  79   38   39 ar
  80   38   80 1
  81   39   40 1
  82   40   41 2
  83   40   42 am
  84   42   81 1
  85   42   82 1

#	End of record

