#	Name: ASD01028195
#	Creating user name:	WinNT
#	Creation time:	15. 06. 2019 18:56

#	Modifying user name:	WinNT
#	Modification time:	15. 06. 2019 18:56

#	Program:	/corina/corina34_cracker 3.40 0067  02.08.2006

@<TRIPOS>MOLECULE
ASD01028195
  36   37    0    0    0
SMALL
NO_CHARGES


@<TRIPOS>ATOM
   1 C1            -0.0184     1.5028     0.0103 C.2     
   2 C2             0.0021    -0.0041     0.0020 C.3     
   3 C3             1.4513    -0.4944    -0.0145 C.3     
   4 O4             1.0197     2.1211     0.0037 O.2     
   5 O5            -1.1898     2.1580     0.0194 O.3     
   6 N6             1.5111    -4.7664    -0.0151 N.ar    
   7 C7             1.6118    -4.1000     1.1096 C.ar    
   8 C8             1.5945    -2.7077     1.1401 C.ar    
   9 C9             1.4717    -2.0012    -0.0227 C.ar    
  10 C10            1.3644    -2.7189    -1.2284 C.ar    
  11 C11            1.2358    -2.0579    -2.4610 C.ar    
  12 C12            1.1346    -2.7804    -3.6088 C.ar    
  13 C13            1.1563    -4.1785    -3.5796 C.ar    
  14 C14            1.2806    -4.8563    -2.3885 C.ar    
  15 C15            1.3878    -4.1358    -1.1881 C.ar    
  16 O16            1.0531    -4.8756    -4.7408 O.3     
  17 C17            0.9261    -4.1159    -5.9445 C.3     
  18 C18           -1.1335     3.6089     0.0270 C.3     
  19 C19           -2.5551     4.1744     0.0369 C.3     
  20 H20           -0.4983    -0.3791     0.8948 H       
  21 H21           -0.5153    -0.3696    -0.8850 H       
  22 H22            1.9516    -0.1193    -0.9073 H       
  23 H23            1.9686    -0.1289     0.8726 H       
  24 H24            1.7095    -4.6451     2.0368 H       
  25 H25            1.6791    -2.1869     2.0824 H       
  26 H26            1.2170    -0.9787    -2.4972 H       
  27 H27            1.0360    -2.2682    -4.5545 H       
  28 H28            1.2963    -5.9362    -2.3771 H       
  29 H29            0.0286    -3.4996    -5.8921 H       
  30 H30            1.8001    -3.4757    -6.0640 H       
  31 H31            0.8526    -4.7931    -6.7955 H       
  32 H32           -0.6017     3.9472     0.9164 H       
  33 H33           -0.6102     3.9569    -0.8636 H       
  34 H34           -3.0869     3.8361    -0.8525 H       
  35 H35           -3.0784     3.8265     0.9275 H       
  36 H36           -2.5128     5.2636     0.0426 H       
@<TRIPOS>BOND
   1    1    2 1
   2    1    4 2
   3    1    5 1
   4    2    3 1
   5    2   20 1
   6    2   21 1
   7    3    9 1
   8    3   22 1
   9    3   23 1
  10    5   18 1
  11    6    7 ar
  12    6   15 ar
  13    7    8 ar
  14    7   24 1
  15    8    9 ar
  16    8   25 1
  17    9   10 ar
  18   10   11 ar
  19   10   15 ar
  20   11   12 ar
  21   11   26 1
  22   12   13 ar
  23   12   27 1
  24   13   14 ar
  25   13   16 1
  26   14   15 ar
  27   14   28 1
  28   16   17 1
  29   17   29 1
  30   17   30 1
  31   17   31 1
  32   18   19 1
  33   18   32 1
  34   18   33 1
  35   19   34 1
  36   19   35 1
  37   19   36 1

#	End of record

