#	Name: ASD03092649
#	Creating user name:	WinNT
#	Creation time:	15. 06. 2019 20:32

#	Modifying user name:	WinNT
#	Modification time:	15. 06. 2019 20:32

#	Program:	/corina/corina34_cracker 3.40 0067  02.08.2006

@<TRIPOS>MOLECULE
ASD03092649
  57   60    0    0    0
SMALL
NO_CHARGES


@<TRIPOS>ATOM
   1 C1             1.0914     1.6363    -0.8827 C.ar    
   2 C2             1.0107     0.2399    -1.0606 C.ar    
   3 C3             1.7580    -0.6022    -0.2074 C.ar    
   4 C4             2.5431    -0.0012     0.7747 C.ar    
   5 C5             2.5625     1.3812     0.8779 C.ar    
   6 N6             1.8577     2.1438     0.0713 N.ar    
   7 N7            -0.3017     1.1567    -2.5776 N.2     
   8 N8             0.2708     2.1941    -1.8321 N.pl3   
   9 C9             0.1293     0.0081    -2.1377 C.2     
  10 C10            1.7084    -2.0725    -0.3513 C.2     
  11 O11            0.6667    -2.6184    -0.6591 O.2     
  12 N12            2.8182    -2.8080    -0.1413 N.am    
  13 C13            3.6128    -4.9135    -1.0315 C.ar    
  14 C14            2.7539    -4.2037    -0.2019 C.ar    
  15 C15            1.8282    -4.9026     0.5689 C.ar    
  16 C16            1.8032    -6.2846     0.4748 C.ar    
  17 C17            2.6904    -6.9197    -0.3738 C.ar    
  18 N18            3.5556    -6.2288    -1.0905 N.ar    
  19 C19            0.8774    -4.1736     1.4831 C.3     
  20 C20            4.6160    -4.1718    -1.8767 C.3     
  21 C21            3.4127     2.0263     1.9419 C.3     
  22 C22           -0.2573    -1.3429    -2.6822 C.3     
  23 C23            0.0449     3.5649    -2.0213 C.ar    
  24 C24           -0.1498     4.0661    -3.3017 C.ar    
  25 C25           -0.3726     5.4156    -3.4882 C.ar    
  26 C26           -0.4021     6.2722    -2.3951 C.ar    
  27 C27           -0.2072     5.7706    -1.1144 C.ar    
  28 C28            0.0103     4.4203    -0.9279 C.ar    
  29 N29           -0.6273     7.6392    -2.5838 N.pl3   
  30 C30           -0.8323     8.1682    -3.9345 C.3     
  31 C31           -0.6583     8.5425    -1.4309 C.3     
  32 H32            3.1305    -0.6066     1.4492 H       
  33 H33            3.6614    -2.3692     0.0518 H       
  34 H34            1.0989    -6.8591     1.0582 H       
  35 H35            2.6752    -7.9969    -0.4509 H       
  36 H36           -0.0815    -4.0441     0.9814 H       
  37 H37            0.7349    -4.7526     2.3955 H       
  38 H38            1.2913    -3.1968     1.7336 H       
  39 H39            5.5707    -4.1276    -1.3525 H       
  40 H40            4.7464    -4.6915    -2.8259 H       
  41 H41            4.2566    -3.1597    -2.0630 H       
  42 H42            4.4087     2.2196     1.5434 H       
  43 H43            2.9563     2.9666     2.2511 H       
  44 H44            3.4881     1.3593     2.8007 H       
  45 H45           -1.0736    -1.7540    -2.0882 H       
  46 H46           -0.5788    -1.2386    -3.7185 H       
  47 H47            0.6008    -2.0133    -2.6337 H       
  48 H48           -0.1266     3.4002    -4.1516 H       
  49 H49           -0.5238     5.8054    -4.4840 H       
  50 H50           -0.2297     6.4365    -0.2644 H       
  51 H51            0.1577     4.0296     0.0681 H       
  52 H52           -1.8950     8.1455    -4.1762 H       
  53 H53           -0.4709     9.1955    -3.9812 H       
  54 H54           -0.2836     7.5571    -4.6512 H       
  55 H55            0.3458     8.9204    -1.2383 H       
  56 H56           -1.3266     9.3775    -1.6414 H       
  57 H57           -1.0172     8.0018    -0.5552 H       
@<TRIPOS>BOND
   1    1    2 ar
   2    1    6 ar
   3    1    8 1
   4    2    3 ar
   5    2    9 1
   6    3    4 ar
   7    3   10 1
   8    4    5 ar
   9    4   32 1
  10    5    6 ar
  11    5   21 1
  12    7    8 1
  13    7    9 2
  14    8   23 1
  15    9   22 1
  16   10   11 2
  17   10   12 am
  18   12   14 1
  19   12   33 1
  20   13   14 ar
  21   13   18 ar
  22   13   20 1
  23   14   15 ar
  24   15   16 ar
  25   15   19 1
  26   16   17 ar
  27   16   34 1
  28   17   18 ar
  29   17   35 1
  30   19   36 1
  31   19   37 1
  32   19   38 1
  33   20   39 1
  34   20   40 1
  35   20   41 1
  36   21   42 1
  37   21   43 1
  38   21   44 1
  39   22   45 1
  40   22   46 1
  41   22   47 1
  42   23   24 ar
  43   23   28 ar
  44   24   25 ar
  45   24   48 1
  46   25   26 ar
  47   25   49 1
  48   26   27 ar
  49   26   29 1
  50   27   28 ar
  51   27   50 1
  52   28   51 1
  53   29   30 1
  54   29   31 1
  55   30   52 1
  56   30   53 1
  57   30   54 1
  58   31   55 1
  59   31   56 1
  60   31   57 1

#	End of record

