#	Name: ASD07300519
#	Creating user name:	WinNT
#	Creation time:	15. 06. 2019 21:09

#	Modifying user name:	WinNT
#	Modification time:	15. 06. 2019 21:09

#	Program:	/corina/corina34_cracker 3.40 0067  02.08.2006

@<TRIPOS>MOLECULE
ASD07300519
  33   36    0    0    0
SMALL
NO_CHARGES


@<TRIPOS>ATOM
   1 N1            -0.0169     1.3952     0.0097 N.pl3   
   2 C2             0.0021    -0.0041     0.0020 C.ar    
   3 C3             1.2140    -0.6820    -0.0132 C.ar    
   4 C4             1.2327    -2.0626    -0.0208 C.ar    
   5 C5             0.0396    -2.7732    -0.0133 C.ar    
   6 C6            -1.1723    -2.0953     0.0014 C.ar    
   7 C7            -1.1910    -0.7148     0.0153 C.ar    
   8 C8             1.1967    -4.9591    -0.0357 C.2     
   9 N9             2.5094    -4.8073    -0.0467 N.2     
  10 C10            3.1139    -6.0214    -0.0653 C.ar    
  11 C11            2.0962    -6.9887    -0.0656 C.ar    
  12 N12            0.9007    -6.2871    -0.0467 N.pl3   
  13 C13            4.4501    -6.4299    -0.0824 C.ar    
  14 C14            4.7541    -7.7730    -0.0994 C.ar    
  15 C15            3.7446    -8.7236    -0.0996 C.ar    
  16 C16            2.4200    -8.3362    -0.0832 C.ar    
  17 N17            0.0586    -4.1739    -0.0211 N.pl3   
  18 C18           -1.1257    -5.0395    -0.0145 C.3     
  19 C19           -0.5576    -6.4686    -0.0345 C.3     
  20 H20            0.8164     1.8916     0.0044 H       
  21 H21           -0.8634     1.8687     0.0163 H       
  22 H22            2.1419    -0.1294    -0.0194 H       
  23 H23            2.1752    -2.5898    -0.0330 H       
  24 H24           -2.1001    -2.6480     0.0066 H       
  25 H25           -2.1334    -0.1876     0.0320 H       
  26 H26            5.2415    -5.6950    -0.0827 H       
  27 H27            5.7870    -8.0883    -0.1131 H       
  28 H28            3.9965    -9.7737    -0.1131 H       
  29 H29            1.6379    -9.0811    -0.0831 H       
  30 H30           -1.7145    -4.8720     0.8874 H       
  31 H31           -1.7311    -4.8629    -0.9035 H       
  32 H32           -0.8828    -6.9941    -0.9324 H       
  33 H33           -0.8655    -7.0129     0.8582 H       
@<TRIPOS>BOND
   1    1    2 1
   2    1   20 1
   3    1   21 1
   4    2    3 ar
   5    2    7 ar
   6    3    4 ar
   7    3   22 1
   8    4    5 ar
   9    4   23 1
  10    5    6 ar
  11    5   17 1
  12    6    7 ar
  13    6   24 1
  14    7   25 1
  15    8    9 2
  16    8   12 1
  17    8   17 1
  18    9   10 1
  19   10   11 ar
  20   10   13 ar
  21   11   12 1
  22   11   16 ar
  23   12   19 1
  24   13   14 ar
  25   13   26 1
  26   14   15 ar
  27   14   27 1
  28   15   16 ar
  29   15   28 1
  30   16   29 1
  31   17   18 1
  32   18   19 1
  33   18   30 1
  34   18   31 1
  35   19   32 1
  36   19   33 1

#	End of record

