#	Name: ASD05740115
#	Creating user name:	WinNT
#	Creation time:	15. 06. 2019 21:02

#	Modifying user name:	WinNT
#	Modification time:	15. 06. 2019 21:02

#	Program:	/corina/corina34_cracker 3.40 0067  02.08.2006

@<TRIPOS>MOLECULE
ASD05740115
  49   52    0    0    0
SMALL
NO_CHARGES


@<TRIPOS>ATOM
   1 C1            -0.1144     1.5093     0.3685 C.3     
   2 C2             1.3131    -0.5419    -0.0339 C.2     
   3 C3             1.4468    -1.9103    -0.1973 C.2     
   4 C4             0.0388     0.0208     0.1898 C.2     
   5 C5            -1.0521    -0.7938     0.2431 C.2     
   6 C6            -0.8830    -2.1775     0.0739 C.2     
   7 O7             0.3327    -2.6971    -0.1376 O.3     
   8 C8            -2.4237    -0.2167     0.4812 C.3     
   9 C9            -3.1094     0.0111    -0.8413 C.ar    
  10 C10           -3.0522     1.2548    -1.4442 C.ar    
  11 O11           -1.8538    -2.9138     0.1206 O.2     
  12 C12           -4.4226    -0.8120    -2.6745 C.ar    
  13 C13           -4.3674     0.4393    -3.2724 C.ar    
  14 C14           -3.6797     1.4681    -2.6572 C.ar    
  15 N15           -5.1178    -1.8550    -3.2946 N.am    
  16 S16           -6.5029    -1.5366    -4.1447 S.o2    
  17 O17           -6.9665    -2.7857    -4.6387 O.2     
  18 O18           -7.2904    -0.6847    -3.3241 O.2     
  19 C19            2.7682    -2.3052    -0.4090 C.2     
  20 C20            3.6719    -1.3256    -0.4202 C.2     
  21 S21            2.8940     0.2246    -0.1481 S.3     
  22 O22            3.1132    -3.6103    -0.5923 O.3     
  23 C23            3.0308    -4.1199    -1.8444 C.ar    
  24 N24            3.2917    -5.4030    -2.0377 N.ar    
  25 N25            2.6862    -3.3239    -2.8440 N.ar    
  26 C26            2.5963    -3.7891    -4.0791 C.ar    
  27 C27            2.8681    -5.1270    -4.3188 C.ar    
  28 C28            3.2206    -5.9329    -3.2477 C.ar    
  29 N29           -6.0704    -0.6414    -5.4690 N.am    
  30 C30           -5.2172    -1.2300    -6.5043 C.3     
  31 C31           -3.7903    -1.0244    -1.4537 C.ar    
  32 F32           -3.8413    -2.2407    -0.8678 F       
  33 H33            0.8627     1.9866     0.2942 H       
  34 H34           -0.7709     1.9028    -0.4075 H       
  35 H35           -0.5457     1.7151     1.3482 H       
  36 H36           -3.0116    -0.9123     1.0802 H       
  37 H37           -2.3320     0.7314     1.0111 H       
  38 H38           -2.5162     2.0612    -0.9658 H       
  39 H39           -4.8612     0.6088    -4.2179 H       
  40 H40           -3.6327     2.4405    -3.1249 H       
  41 H41           -4.7887    -2.7649    -3.2268 H       
  42 H42            4.7321    -1.4659    -0.5707 H       
  43 H43            2.3143    -3.1347    -4.8907 H       
  44 H44            2.8021    -5.5334    -5.3172 H       
  45 H45            3.4388    -6.9797    -3.3997 H       
  46 H46           -6.3820     0.2728    -5.5592 H       
  47 H47           -5.0413    -0.4961    -7.2907 H       
  48 H48           -4.2650    -1.5270    -6.0648 H       
  49 H49           -5.7106    -2.1049    -6.9276 H       
@<TRIPOS>BOND
   1    1    4 1
   2    1   33 1
   3    1   34 1
   4    1   35 1
   5    2    3 2
   6    2    4 1
   7    2   21 1
   8    3   19 1
   9    3    7 1
  10    4    5 2
  11    5    6 1
  12    5    8 1
  13    6    7 1
  14    6   11 2
  15    8    9 1
  16    8   36 1
  17    8   37 1
  18    9   10 ar
  19    9   31 ar
  20   10   14 ar
  21   10   38 1
  22   12   13 ar
  23   12   15 1
  24   12   31 ar
  25   13   14 ar
  26   13   39 1
  27   14   40 1
  28   15   16 am
  29   15   41 1
  30   16   17 2
  31   16   18 2
  32   16   29 am
  33   19   20 2
  34   19   22 1
  35   20   21 1
  36   20   42 1
  37   22   23 1
  38   23   24 ar
  39   23   25 ar
  40   24   28 ar
  41   25   26 ar
  42   26   27 ar
  43   26   43 1
  44   27   28 ar
  45   27   44 1
  46   28   45 1
  47   29   30 1
  48   29   46 1
  49   30   47 1
  50   30   48 1
  51   30   49 1
  52   31   32 1

#	End of record

