#	Name: ASD03091718
#	Creating user name:	WinNT
#	Creation time:	15. 06. 2019 20:31

#	Modifying user name:	WinNT
#	Modification time:	15. 06. 2019 20:31

#	Program:	/corina/corina34_cracker 3.40 0067  02.08.2006

@<TRIPOS>MOLECULE
ASD03091718
  55   58    0    0    0
SMALL
NO_CHARGES


@<TRIPOS>ATOM
   1 C1            -0.0645     1.3754    -0.2015 C.2     
   2 C2             0.0345     0.0515     0.0403 C.2     
   3 N3            -1.1175    -0.5493     0.2449 N.2     
   4 C4            -2.1862     0.1875     0.1907 C.2     
   5 S5            -1.7702     1.8121    -0.1408 S.3     
   6 N6            -3.4757    -0.2753     0.3801 N.3     
   7 C7            -3.6078    -0.9496     1.6798 C.3     
   8 C8            -3.8806    -1.1695    -0.7142 C.3     
   9 C9            -5.3306    -1.6098    -0.4963 C.3     
  10 O10           -5.4463    -2.2350     0.7848 O.3     
  11 C11           -5.0605    -1.3920     1.8738 C.3     
  12 C12            1.0586     2.2963    -0.4642 C.ar    
  13 C13            1.0178     3.1938    -1.5397 C.ar    
  14 C14            2.1931     2.3019     0.3583 C.ar    
  15 C15            3.2180     3.1789     0.0764 C.ar    
  16 N16            3.1405     4.0049    -0.9505 N.ar    
  17 C17            2.0885     4.0360    -1.7476 C.ar    
  18 C18            1.3534    -0.6770     0.0732 C.3     
  19 C19            4.4439     3.1955     0.9526 C.3     
  20 N20            1.8255    -0.7700     1.4569 N.am    
  21 C21            2.9931    -1.3850     1.7307 C.2     
  22 C22            3.4712    -1.4791     3.1317 C.2     
  23 O23            3.6541    -1.8622     0.8299 O.2     
  24 C24            2.0606     5.0019    -2.9039 C.3     
  25 N25            2.8721    -1.0162     4.2006 N.2     
  26 O26            3.5104    -1.2491     5.2007 O.3     
  27 C27            4.6427    -1.9115     4.9267 C.2     
  28 C28            4.6699    -2.0959     3.5864 C.2     
  29 C29            5.6811    -2.3676     5.9190 C.3     
  30 C30           -3.7666    -0.4288    -2.0481 C.3     
  31 H31           -2.9551    -1.8222     1.7052 H       
  32 H32           -3.3274    -0.2612     2.4771 H       
  33 H33           -3.2323    -2.0457    -0.7272 H       
  34 H34           -5.9853    -0.7392    -0.5369 H       
  35 H35           -5.6168    -2.3178    -1.2740 H       
  36 H36           -5.1514    -1.9425     2.8101 H       
  37 H37           -5.7074    -0.5151     1.9021 H       
  38 H38            0.1605     3.2247    -2.1958 H       
  39 H39            2.2630     1.6294     1.2005 H       
  40 H40            1.2250    -1.6794    -0.3351 H       
  41 H41            2.0844    -0.1322    -0.5243 H       
  42 H42            5.1793     2.4921     0.5621 H       
  43 H43            4.8701     4.1987     0.9622 H       
  44 H44            4.1691     2.9078     1.9674 H       
  45 H45            1.2978    -0.3889     2.1761 H       
  46 H46            2.4897     4.5258    -3.7855 H       
  47 H47            1.0301     5.2900    -3.1119 H       
  48 H48            2.6417     5.8886    -2.6507 H       
  49 H49            5.4281    -2.5912     2.9980 H       
  50 H50            5.3759    -2.0763     6.9240 H       
  51 H51            5.7797    -3.4520     5.8692 H       
  52 H52            6.6388    -1.9044     5.6815 H       
  53 H53           -2.7348    -0.1122    -2.2009 H       
  54 H54           -4.0669    -1.0923    -2.8590 H       
  55 H55           -4.4168     0.4460    -2.0346 H       
@<TRIPOS>BOND
   1    1    2 2
   2    1   12 1
   3    1    5 1
   4    2    3 1
   5    2   18 1
   6    3    4 2
   7    4    5 1
   8    4    6 1
   9    6    7 1
  10    6    8 1
  11    7   11 1
  12    7   31 1
  13    7   32 1
  14    8    9 1
  15    8   30 1
  16    8   33 1
  17    9   10 1
  18    9   34 1
  19    9   35 1
  20   10   11 1
  21   11   36 1
  22   11   37 1
  23   12   13 ar
  24   12   14 ar
  25   13   17 ar
  26   13   38 1
  27   14   15 ar
  28   14   39 1
  29   15   16 ar
  30   15   19 1
  31   16   17 ar
  32   17   24 1
  33   18   20 1
  34   18   40 1
  35   18   41 1
  36   19   42 1
  37   19   43 1
  38   19   44 1
  39   20   21 am
  40   20   45 1
  41   21   22 1
  42   21   23 2
  43   22   25 2
  44   22   28 1
  45   24   46 1
  46   24   47 1
  47   24   48 1
  48   25   26 1
  49   26   27 1
  50   27   28 2
  51   27   29 1
  52   28   49 1
  53   29   50 1
  54   29   51 1
  55   29   52 1
  56   30   53 1
  57   30   54 1
  58   30   55 1

#	End of record

