#	Name: ASD03540142
#	Creating user name:	WinNT
#	Creation time:	15. 06. 2019 20:42

#	Modifying user name:	WinNT
#	Modification time:	15. 06. 2019 20:42

#	Program:	/corina/corina34_cracker 3.40 0067  02.08.2006

@<TRIPOS>MOLECULE
ASD03540142
  58   62    0    0    0
SMALL
NO_CHARGES


@<TRIPOS>ATOM
   1 C1            -0.0180     1.4730     0.0101 C.2     
   2 C2             0.0021    -0.0041     0.0020 C.ar    
   3 C3             1.2188    -0.6888    -0.0133 C.ar    
   4 C4             1.2303    -2.0682    -0.0203 C.ar    
   5 C5             0.0396    -2.7731    -0.0127 C.ar    
   6 C6            -1.1697    -2.1009     0.0020 C.ar    
   7 C7            -1.1956    -0.7217     0.0154 C.ar    
   8 O8             1.0256     2.0946     0.0035 O.2     
   9 O9            -1.1936     2.1307     0.0193 O.3     
  10 C10            0.0601    -4.2800    -0.0210 C.3     
  11 N11           -1.1415    -5.4839     3.2934 N.pl3   
  12 C12           -1.1135    -5.0224     2.0096 C.2     
  13 N13            0.0799    -4.7757     1.3575 N.am    
  14 C14            1.2629    -4.9850     1.9716 C.2     
  15 C15            1.2660    -5.4841     3.3594 C.ar    
  16 C16            2.4574    -5.7174     4.0389 C.ar    
  17 C17            2.4189    -6.1890     5.3483 C.ar    
  18 C18            1.1891    -6.4251     5.9716 C.ar    
  19 C19            0.0097    -6.1941     5.2985 C.ar    
  20 C20            0.0342    -5.7244     3.9924 C.ar    
  21 N21           -3.1529    -5.2459     2.5769 N.2     
  22 N22           -2.3643    -4.8961     1.6243 N.2     
  23 C23           -2.4610    -5.6193     3.6178 C.2     
  24 O24            2.3088    -4.7662     1.3906 O.2     
  25 C25            3.6390    -6.4331     6.0572 C.1     
  26 C26            4.6393    -6.6332     6.6383 C.1     
  27 C27            5.8934    -6.8841     7.3670 C.3     
  28 C28            5.5777    -7.3856     8.7525 C.ar    
  29 C29            5.4433    -8.7426     8.9813 C.ar    
  30 C30            5.1539    -9.2049    10.2505 C.ar    
  31 C31            4.9981    -8.3064    11.2960 C.ar    
  32 C32            5.1334    -6.9454    11.0639 C.ar    
  33 C33            5.4284    -6.4885     9.7940 C.ar    
  34 O34            4.7129    -8.7587    12.5454 O.3     
  35 C35            4.5661    -7.7767    13.5731 C.3     
  36 C36           -1.1373     3.5816     0.0269 C.3     
  37 H37            2.1488    -0.1398    -0.0199 H       
  38 H38            2.1707    -2.5992    -0.0321 H       
  39 H39           -2.0953    -2.6572     0.0071 H       
  40 H40           -2.1401    -0.1983     0.0318 H       
  41 H41           -0.8298    -4.6526    -0.5283 H       
  42 H42            0.9499    -4.6284    -0.5452 H       
  43 H43            3.4049    -5.5343     3.5542 H       
  44 H44            1.1642    -6.7912     6.9873 H       
  45 H45           -0.9354    -6.3794     5.7873 H       
  46 H46           -2.8574    -5.9638     4.5615 H       
  47 H47            6.4796    -7.6329     6.8343 H       
  48 H48            6.4644    -5.9582     7.4371 H       
  49 H49            5.5644    -9.4417     8.1670 H       
  50 H50            5.0487   -10.2649    10.4287 H       
  51 H51            5.0125    -6.2439    11.8761 H       
  52 H52            5.5386    -5.4293     9.6136 H       
  53 H53            5.4930    -7.2116    13.6707 H       
  54 H54            3.7528    -7.0987    13.3143 H       
  55 H55            4.3406    -8.2707    14.5182 H       
  56 H56           -0.6055     3.9199     0.9162 H       
  57 H57           -0.6140     3.9295    -0.8637 H       
  58 H58           -2.1501     3.9844     0.0339 H       
@<TRIPOS>BOND
   1    1    2 1
   2    1    8 2
   3    1    9 1
   4    2    3 ar
   5    2    7 ar
   6    3    4 ar
   7    3   37 1
   8    4    5 ar
   9    4   38 1
  10    5    6 ar
  11    5   10 1
  12    6    7 ar
  13    6   39 1
  14    7   40 1
  15    9   36 1
  16   10   13 1
  17   10   41 1
  18   10   42 1
  19   11   12 1
  20   11   20 1
  21   11   23 1
  22   12   13 1
  23   12   22 2
  24   13   14 am
  25   14   15 1
  26   14   24 2
  27   15   16 ar
  28   15   20 ar
  29   16   17 ar
  30   16   43 1
  31   17   18 ar
  32   17   25 1
  33   18   19 ar
  34   18   44 1
  35   19   20 ar
  36   19   45 1
  37   21   22 1
  38   21   23 2
  39   23   46 1
  40   25   26 3
  41   26   27 1
  42   27   28 1
  43   27   47 1
  44   27   48 1
  45   28   29 ar
  46   28   33 ar
  47   29   30 ar
  48   29   49 1
  49   30   31 ar
  50   30   50 1
  51   31   32 ar
  52   31   34 1
  53   32   33 ar
  54   32   51 1
  55   33   52 1
  56   34   35 1
  57   35   53 1
  58   35   54 1
  59   35   55 1
  60   36   56 1
  61   36   57 1
  62   36   58 1

#	End of record

