#	Name: ASD00431207
#	Creating user name:	WinNT
#	Creation time:	15. 06. 2019 18:35

#	Modifying user name:	WinNT
#	Modification time:	15. 06. 2019 18:35

#	Program:	/corina/corina34_cracker 3.40 0067  02.08.2006

@<TRIPOS>MOLECULE
ASD00431207
  52   55    0    0    0
SMALL
NO_CHARGES


@<TRIPOS>ATOM
   1 C1            -0.4838     1.7415    -0.7278 C.2     
   2 C2            -0.7527     0.3153    -1.1336 C.3     
   3 O3             0.6326     2.0764    -0.3927 O.2     
   4 N4            -1.4828     2.6460    -0.7426 N.am    
   5 C5            -1.2215     4.0325    -0.3480 C.3     
   6 C6            -0.6929     4.8144    -1.5523 C.3     
   7 O7            -3.7000     4.5779    -0.4408 O.3     
   8 N8            -4.5199     5.1994     0.2016 N.2     
   9 C9            -3.9499     5.7459     1.2481 C.2     
  10 N10           -2.6404     5.4026     1.2126 N.2     
  11 C11           -2.4991     4.6652     0.1401 C.2     
  12 S12           -3.8338     7.3096     3.6742 S.3     
  13 C13           -5.3244     7.9919     4.1588 C.2     
  14 N14           -6.2608     7.6701     3.3199 N.2     
  15 C15           -5.9177     6.9162     2.2992 C.2     
  16 C16           -4.6110     6.5790     2.2720 C.2     
  17 O17           -5.5027     8.7581     5.2609 O.3     
  18 C18           -6.7739     9.1021     5.6006 C.ar    
  19 C19           -6.9957    10.0302     6.6093 C.ar    
  20 C20           -8.2870    10.3801     6.9542 C.ar    
  21 C21           -9.3627     9.8033     6.2915 C.ar    
  22 C22           -9.1395     8.8754     5.2829 C.ar    
  23 C23           -7.8479     8.5302     4.9354 C.ar    
  24 Cl24          -5.6507    10.7503     7.4375 Cl      
  25 N25          -10.6707    10.1567     6.6402 N.pl3   
  26 C26          -11.8051     9.5480     5.9410 C.3     
  27 C27          -13.0927    10.0945     6.5018 C.ar    
  28 C28          -13.6598    11.2289     5.9517 C.ar    
  29 C29          -14.8408    11.7302     6.4661 C.ar    
  30 C30          -15.4551    11.0969     7.5304 C.ar    
  31 C31          -14.8885     9.9621     8.0799 C.ar    
  32 C32          -13.7097     9.4583     7.5627 C.ar    
  33 H33            0.1690    -0.2624    -1.0634 H       
  34 H34           -1.5030    -0.1158    -0.4708 H       
  35 H35           -1.1185     0.2924    -2.1601 H       
  36 H36           -2.3749     2.3791    -1.0144 H       
  37 H37           -0.4795     4.0494     0.4503 H       
  38 H38           -0.4984     5.8460    -1.2587 H       
  39 H39            0.2313     4.3568    -1.9054 H       
  40 H40           -1.4348     4.7975    -2.3506 H       
  41 H41           -6.6216     6.5939     1.5462 H       
  42 H42           -8.4599    11.1017     7.7390 H       
  43 H43           -9.9757     8.4266     4.7674 H       
  44 H44           -7.6745     7.8118     4.1479 H       
  45 H45          -10.8264    10.8047     7.3450 H       
  46 H46          -11.7440     9.7809     4.8780 H       
  47 H47          -11.7789     8.4670     6.0783 H       
  48 H48          -13.1799    11.7236     5.1203 H       
  49 H49          -15.2835    12.6168     6.0368 H       
  50 H50          -16.3774    11.4890     7.9328 H       
  51 H51          -15.3682     9.4675     8.9116 H       
  52 H52          -13.2689     8.5695     7.9896 H       
@<TRIPOS>BOND
   1    1    2 1
   2    1    3 2
   3    1    4 am
   4    2   33 1
   5    2   34 1
   6    2   35 1
   7    4    5 1
   8    4   36 1
   9    5    6 1
  10    5   11 1
  11    5   37 1
  12    6   38 1
  13    6   39 1
  14    6   40 1
  15    7    8 1
  16    7   11 1
  17    8    9 2
  18    9   10 1
  19    9   16 1
  20   10   11 2
  21   12   13 1
  22   12   16 1
  23   13   14 2
  24   13   17 1
  25   14   15 1
  26   15   16 2
  27   15   41 1
  28   17   18 1
  29   18   19 ar
  30   18   23 ar
  31   19   20 ar
  32   19   24 1
  33   20   21 ar
  34   20   42 1
  35   21   22 ar
  36   21   25 1
  37   22   23 ar
  38   22   43 1
  39   23   44 1
  40   25   26 1
  41   25   45 1
  42   26   27 1
  43   26   46 1
  44   26   47 1
  45   27   28 ar
  46   27   32 ar
  47   28   29 ar
  48   28   48 1
  49   29   30 ar
  50   29   49 1
  51   30   31 ar
  52   30   50 1
  53   31   32 ar
  54   31   51 1
  55   32   52 1

#	End of record

