#	Name: ASD03240179
#	Creating user name:	WinNT
#	Creation time:	15. 06. 2019 20:34

#	Modifying user name:	WinNT
#	Modification time:	15. 06. 2019 20:34

#	Program:	/corina/corina34_cracker 3.40 0067  02.08.2006

@<TRIPOS>MOLECULE
ASD03240179
  98  105    0    0    0
SMALL
NO_CHARGES


@<TRIPOS>ATOM
   1 C1             0.0554     1.4975     0.1647 C.ar    
   2 C2            -0.0625     0.1023    -0.0591 C.ar    
   3 N3             1.2608     2.0696     0.2079 N.ar    
   4 C4             2.3440     1.3320     0.0415 C.ar    
   5 C5             2.2299    -0.0614    -0.1821 C.ar    
   6 N6             1.0410    -0.6356    -0.2269 N.ar    
   7 C7             3.4504    -0.8797    -0.3681 C.ar    
   8 C8             3.6826     1.9650     0.0887 C.ar    
   9 C9             3.9168     3.1590    -0.5928 C.ar    
  10 C10            5.1657     3.7438    -0.5452 C.ar    
  11 C11            6.1846     3.1478     0.1763 C.ar    
  12 C12            5.9584     1.9633     0.8544 C.ar    
  13 C13            4.7120     1.3723     0.8193 C.ar    
  14 C14            3.5825    -2.1003     0.2937 C.ar    
  15 C15            4.7217    -2.8584     0.1161 C.ar    
  16 C16            5.7316    -2.4100    -0.7164 C.ar    
  17 C17            5.6066    -1.1999    -1.3752 C.ar    
  18 C18            4.4697    -0.4355    -1.2101 C.ar    
  19 C19            6.9731    -3.2428    -0.9059 C.3     
  20 N20            6.7803    -4.1585    -2.0383 N.3     
  21 C21            8.0415    -4.8159    -2.4041 C.3     
  22 C22            7.8357    -5.6472    -3.6725 C.3     
  23 C23            6.7473    -6.6941    -3.4198 C.3     
  24 C24            5.4583    -5.9861    -2.9936 C.3     
  25 C25            5.7329    -5.1451    -1.7449 C.3     
  26 C26            6.4980    -7.4765    -4.6834 C.2     
  27 N27            7.0392    -8.6209    -5.0030 N.2     
  28 N28            6.6071    -9.0085    -6.1499 N.2     
  29 C29            5.7596    -8.1238    -6.6271 C.2     
  30 N30            5.6625    -7.1224    -5.6989 N.pl3   
  31 C31            5.0433    -8.1989    -7.9186 C.ar    
  32 C32            4.1688    -7.1837    -8.3018 C.ar    
  33 N33            3.5290    -7.2467    -9.4520 N.ar    
  34 C34            3.6878    -8.2656   -10.2835 C.ar    
  35 C35            4.5444    -9.3180    -9.9696 C.ar    
  36 C36            5.2387    -9.2893    -8.7774 C.ar    
  37 N37           -1.2725    -0.4656    -0.1005 N.ar    
  38 C38           -2.3697     0.2453     0.0630 C.ar    
  39 C39           -2.3199     1.6297     0.2874 C.ar    
  40 C40           -1.1161     2.2640     0.3454 C.ar    
  41 N41           -3.6007    -0.3882     0.0118 N.3     
  42 C42           -3.4419    -1.8288    -0.2312 C.3     
  43 C43           -4.8156    -2.5030    -0.2015 C.3     
  44 N44           -5.6803    -1.8921    -1.2207 N.3     
  45 C45           -5.8391    -0.4515    -0.9777 C.3     
  46 C46           -4.4654     0.2227    -1.0074 C.3     
  47 C47           -6.9856    -2.5639    -1.2750 C.3     
  48 C48           -7.9387    -1.7557    -2.1577 C.3     
  49 N49           -9.2440    -2.4274    -2.2120 N.3     
  50 C50           -9.8954    -2.4193    -0.8954 C.3     
  51 C51          -10.1084    -1.8168    -3.2308 C.3     
  52 N52            2.9904    -8.2849   -11.4840 N.pl3   
  53 H53            3.1224     3.6248    -1.1569 H       
  54 H54            5.3483     4.6684    -1.0725 H       
  55 H55            7.1606     3.6088     0.2101 H       
  56 H56            6.7578     1.5025     1.4157 H       
  57 H57            4.5364     0.4478     1.3494 H       
  58 H58            2.7950    -2.4513     0.9441 H       
  59 H59            4.8253    -3.8036     0.6283 H       
  60 H60            6.3985    -0.8549    -2.0235 H       
  61 H61            4.3733     0.5090    -1.7249 H       
  62 H62            7.8218    -2.5892    -1.1076 H       
  63 H63            7.1655    -3.8194    -0.0011 H       
  64 H64            8.8058    -4.0602    -2.5852 H       
  65 H65            8.3607    -5.4675    -1.5907 H       
  66 H66            7.5298    -4.9942    -4.4899 H       
  67 H67            8.7679    -6.1474    -3.9349 H       
  68 H68            7.0698    -7.3711    -2.6287 H       
  69 H69            5.1150    -5.3385    -3.8003 H       
  70 H70            4.6919    -6.7285    -2.7709 H       
  71 H71            6.0629    -5.7951    -0.9345 H       
  72 H72            4.8205    -4.6284    -1.4471 H       
  73 H73            5.1164    -6.3228    -5.7557 H       
  74 H74            4.0137    -6.3371    -7.6494 H       
  75 H75            4.6673   -10.1448   -10.6535 H       
  76 H76            5.9096   -10.0918    -8.5086 H       
  77 H77           -3.2338     2.1902     0.4176 H       
  78 H78           -1.0595     3.3287     0.5173 H       
  79 H79           -2.9814    -1.9845    -1.2068 H       
  80 H80           -2.8081    -2.2606     0.5435 H       
  81 H81           -4.7032    -3.5669    -0.4102 H       
  82 H82           -5.2644    -2.3706     0.7830 H       
  83 H83           -6.4729    -0.0197    -1.7523 H       
  84 H84           -6.2996    -0.2958    -0.0021 H       
  85 H85           -4.5778     1.2866    -0.7987 H       
  86 H86           -4.0166     0.0903    -1.9918 H       
  87 H87           -6.8628    -3.5631    -1.6927 H       
  88 H88           -7.3978    -2.6388    -0.2687 H       
  89 H89           -8.0615    -0.7564    -1.7400 H       
  90 H90           -7.5265    -1.6807    -3.1639 H       
  91 H91          -10.0455    -1.3897    -0.5706 H       
  92 H92          -10.8597    -2.9228    -0.9640 H       
  93 H93           -9.2645    -2.9393    -0.1746 H       
  94 H94           -9.6322    -1.8988    -4.2078 H       
  95 H95          -11.0681    -2.3331    -3.2499 H       
  96 H96          -10.2662    -0.7654    -2.9906 H       
  97 H97            2.3918    -7.5555   -11.7090 H       
  98 H98            3.1017    -9.0278   -12.0977 H       
@<TRIPOS>BOND
   1    1    2 ar
   2    1    3 ar
   3    1   40 ar
   4    2   37 ar
   5    2    6 ar
   6    3    4 ar
   7    4    5 ar
   8    4    8 1
   9    5    6 ar
  10    5    7 1
  11    7   14 ar
  12    7   18 ar
  13    8    9 ar
  14    8   13 ar
  15    9   10 ar
  16    9   53 1
  17   10   11 ar
  18   10   54 1
  19   11   12 ar
  20   11   55 1
  21   12   13 ar
  22   12   56 1
  23   13   57 1
  24   14   15 ar
  25   14   58 1
  26   15   16 ar
  27   15   59 1
  28   16   17 ar
  29   16   19 1
  30   17   18 ar
  31   17   60 1
  32   18   61 1
  33   19   20 1
  34   19   62 1
  35   19   63 1
  36   20   21 1
  37   20   25 1
  38   21   22 1
  39   21   64 1
  40   21   65 1
  41   22   23 1
  42   22   66 1
  43   22   67 1
  44   23   24 1
  45   23   26 1
  46   23   68 1
  47   24   25 1
  48   24   69 1
  49   24   70 1
  50   25   71 1
  51   25   72 1
  52   26   27 2
  53   26   30 1
  54   27   28 1
  55   28   29 2
  56   29   30 1
  57   29   31 1
  58   30   73 1
  59   31   32 ar
  60   31   36 ar
  61   32   33 ar
  62   32   74 1
  63   33   34 ar
  64   34   35 ar
  65   34   52 1
  66   35   36 ar
  67   35   75 1
  68   36   76 1
  69   37   38 ar
  70   38   39 ar
  71   38   41 1
  72   39   40 ar
  73   39   77 1
  74   40   78 1
  75   41   42 1
  76   41   46 1
  77   42   43 1
  78   42   79 1
  79   42   80 1
  80   43   44 1
  81   43   81 1
  82   43   82 1
  83   44   45 1
  84   44   47 1
  85   45   46 1
  86   45   83 1
  87   45   84 1
  88   46   85 1
  89   46   86 1
  90   47   48 1
  91   47   87 1
  92   47   88 1
  93   48   49 1
  94   48   89 1
  95   48   90 1
  96   49   50 1
  97   49   51 1
  98   50   91 1
  99   50   92 1
 100   50   93 1
 101   51   94 1
 102   51   95 1
 103   51   96 1
 104   52   97 1
 105   52   98 1

#	End of record

