#	Name: ASD02398026
#	Creating user name:	WinNT
#	Creation time:	15. 06. 2019 20:20

#	Modifying user name:	WinNT
#	Modification time:	15. 06. 2019 20:20

#	Program:	/corina/corina34_cracker 3.40 0067  02.08.2006

@<TRIPOS>MOLECULE
ASD02398026
  72   75    0    0    0
SMALL
NO_CHARGES


@<TRIPOS>ATOM
   1 C1             1.4750     2.0217    -0.6829 C.ar    
   2 C2             1.2016     0.6562    -0.8103 C.ar    
   3 C3            -0.0462     0.2423    -1.2697 C.ar    
   4 C4            -1.0055     1.1797    -1.5966 C.ar    
   5 C5            -0.7321     2.5298    -1.4695 C.ar    
   6 C6             0.5013     2.9514    -1.0095 C.ar    
   7 C7            -2.3553     0.7305    -2.0941 C.3     
   8 C8            -3.2657     0.4801    -0.9196 C.2     
   9 O9            -2.8342     0.5565     0.2064 O.2     
  10 O10           -4.5560     0.1720    -1.1244 O.3     
  11 C11            2.2361    -0.3468    -0.4582 C.ar    
  12 C12            2.6360    -0.5033     0.8679 C.ar    
  13 C13            2.8076    -1.1401    -1.4510 C.ar    
  14 C14            3.7695    -2.0722    -1.1175 C.ar    
  15 C15            4.1663    -2.2195     0.1992 C.ar    
  16 C16            3.5984    -1.4382     1.1898 C.ar    
  17 C17            2.0187     0.3474     1.9479 C.3     
  18 N18            1.6974    -0.4907     3.1058 N.am    
  19 C19            2.5499    -0.8312     4.0820 C.2     
  20 O20            2.0077    -1.6062     5.0279 O.3     
  21 C21            0.6090    -1.8579     4.7069 C.3     
  22 C22            0.3847    -1.0906     3.3896 C.3     
  23 O23            3.7097    -0.4694     4.1055 O.2     
  24 C24           -0.0128    -2.0525     2.2682 C.3     
  25 C25            0.3689    -3.3329     4.5117 C.ar    
  26 C26           -0.8357    -3.8935     4.8930 C.ar    
  27 C27            1.3513    -4.1241     3.9462 C.ar    
  28 C28            1.1311    -5.4770     3.7671 C.ar    
  29 C29           -0.0712    -6.0388     4.1540 C.ar    
  30 C30           -1.0559    -5.2464     4.7140 C.ar    
  31 O31            2.6892     2.4348    -0.2352 O.3     
  32 C32            2.8967     3.8448    -0.1307 C.3     
  33 C33           -5.4013     0.0590     0.0508 C.3     
  34 C34           -6.7997    -0.3984    -0.3688 C.3     
  35 C35            5.2166    -3.2392     0.5571 C.3     
  36 F36            5.6333    -3.9054    -0.6003 F       
  37 F37            6.3110    -2.5951     1.1441 F       
  38 F38            4.6804    -4.1637     1.4599 F       
  39 C39           -2.3666    -5.8588     5.1358 C.3     
  40 F40           -2.3056    -7.2473     4.9756 F       
  41 F41           -2.6126    -5.5547     6.4790 F       
  42 F42           -3.3985    -5.3429     4.3443 F       
  43 C43            2.2017    -6.3394     3.1497 C.3     
  44 F44            3.0308    -6.8458     4.1563 F       
  45 F45            1.6055    -7.4000     2.4591 F       
  46 F46            2.9626    -5.5730     2.2604 F       
  47 H47           -0.2631    -0.8109    -1.3705 H       
  48 H48           -1.4873     3.2577    -1.7271 H       
  49 H49            0.7089     4.0068    -0.9124 H       
  50 H50           -2.7852     1.5058    -2.7282 H       
  51 H51           -2.2431    -0.1885    -2.6693 H       
  52 H52            2.4983    -1.0261    -2.4795 H       
  53 H53            4.2129    -2.6878    -1.8861 H       
  54 H54            3.9120    -1.5575     2.2163 H       
  55 H55            2.7232     1.1240     2.2459 H       
  56 H56            1.1069     0.8096     1.5698 H       
  57 H57           -0.0396    -1.4646     5.4897 H       
  58 H58           -0.3741    -0.3190     3.5204 H       
  59 H59           -0.8880    -2.6255     2.5742 H       
  60 H60           -0.2470    -1.4842     1.3680 H       
  61 H61            0.8137    -2.7331     2.0634 H       
  62 H62           -1.6047    -3.2746     5.3311 H       
  63 H63            2.2906    -3.6852     3.6439 H       
  64 H64           -0.2434    -7.0957     4.0138 H       
  65 H65            3.9043     4.0375     0.2377 H       
  66 H66            2.7747     4.3037    -1.1118 H       
  67 H67            2.1694     4.2688     0.5617 H       
  68 H68           -4.9718    -0.6694     0.7386 H       
  69 H69           -5.4690     1.0286     0.5443 H       
  70 H70           -7.4087    -0.5668     0.5194 H       
  71 H71           -7.2633     0.3706    -0.9867 H       
  72 H72           -6.7233    -1.3248    -0.9381 H       
@<TRIPOS>BOND
   1    1    2 ar
   2    1   31 1
   3    1    6 ar
   4    2    3 ar
   5    2   11 1
   6    3    4 ar
   7    3   47 1
   8    4    5 ar
   9    4    7 1
  10    5    6 ar
  11    5   48 1
  12    6   49 1
  13    7    8 1
  14    7   50 1
  15    7   51 1
  16    8    9 2
  17    8   10 1
  18   10   33 1
  19   11   12 ar
  20   11   13 ar
  21   12   17 1
  22   12   16 ar
  23   13   14 ar
  24   13   52 1
  25   14   15 ar
  26   14   53 1
  27   15   16 ar
  28   15   35 1
  29   16   54 1
  30   17   18 1
  31   17   55 1
  32   17   56 1
  33   18   19 am
  34   18   22 1
  35   19   20 1
  36   19   23 2
  37   20   21 1
  38   21   22 1
  39   21   25 1
  40   21   57 1
  41   22   24 1
  42   22   58 1
  43   24   59 1
  44   24   60 1
  45   24   61 1
  46   25   26 ar
  47   25   27 ar
  48   26   30 ar
  49   26   62 1
  50   27   28 ar
  51   27   63 1
  52   28   29 ar
  53   28   43 1
  54   29   30 ar
  55   29   64 1
  56   30   39 1
  57   31   32 1
  58   32   65 1
  59   32   66 1
  60   32   67 1
  61   33   34 1
  62   33   68 1
  63   33   69 1
  64   34   70 1
  65   34   71 1
  66   34   72 1
  67   35   36 1
  68   35   37 1
  69   35   38 1
  70   39   40 1
  71   39   41 1
  72   39   42 1
  73   43   44 1
  74   43   45 1
  75   43   46 1

#	End of record

