#	Name: ASD08178442
#	Creating user name:	WinNT
#	Creation time:	15. 06. 2019 21:18

#	Modifying user name:	WinNT
#	Modification time:	15. 06. 2019 21:18

#	Program:	/corina/corina34_cracker 3.40 0067  02.08.2006

@<TRIPOS>MOLECULE
ASD08178442
  72   75    0    0    0
SMALL
NO_CHARGES


@<TRIPOS>ATOM
   1 C1            -0.1856     1.6463     0.8855 C.2     
   2 C2             1.1556     3.0010     2.7969 C.2     
   3 N3             0.0556     2.7377     3.4406 N.2     
   4 N4            -1.2232     2.3960     0.7023 N.2     
   5 C5            -0.3249     0.1461     0.8534 C.3     
   6 C6            -1.7866    -0.2250     0.5956 C.3     
   7 C7            -1.9280    -1.7481     0.5630 C.3     
   8 C8            -3.3898    -2.1192     0.3052 C.3     
   9 C9            -3.5290    -3.6194     0.2731 C.2     
  10 N10           -2.4905    -4.3692     0.4510 N.2     
  11 N11           -5.5608    -1.7279    -0.0096 N.2     
  12 C12           -6.1129    -2.9059    -0.0465 C.2     
  13 S13           -5.1069    -4.3520    -0.0068 S.3     
  14 N14           -7.4880    -3.0226    -0.1169 N.am    
  15 C15           -8.0547    -4.2367    -0.2626 C.2     
  16 O16           -7.3659    -5.2343    -0.2370 O.2     
  17 C17           -9.5445    -4.3544    -0.4572 C.3     
  18 C18           -9.9200    -5.8075    -0.5935 C.ar    
  19 C19          -10.1450    -6.5890     0.5511 C.ar    
  20 C20          -10.4975    -7.9540     0.4088 C.ar    
  21 C21          -10.6152    -8.4984    -0.8819 C.ar    
  22 C22          -10.3903    -7.7120    -1.9696 C.ar    
  23 C23          -10.0485    -6.3687    -1.8273 C.ar    
  24 N24            2.1380     3.7686     3.3929 N.am    
  25 C25            1.9570     4.2446     4.6407 C.2     
  26 O26            0.9321     3.9992     5.2404 O.2     
  27 C27            3.0284     5.0817     5.2907 C.3     
  28 C28            2.5820     5.4844     6.6726 C.ar    
  29 C29            1.9771     6.6876     6.8733 C.ar    
  30 C30            1.5593     7.0744     8.1450 C.ar    
  31 C31            1.7430     6.2626     9.2217 C.ar    
  32 C32            2.3632     5.0122     9.0548 C.ar    
  33 C33            2.7821     4.6186     7.7596 C.ar    
  34 C34          -10.0276    -6.0456     1.8444 C.ar    
  35 C35          -10.2607    -6.8656     2.9114 C.ar    
  36 C36          -10.6040    -8.1996     2.7013 C.ar    
  37 N37          -10.7120    -8.7024     1.4956 N.ar    
  38 S38            1.3922     2.3788     1.1655 S.3     
  39 N39            2.5569     4.1936    10.0938 N.ar    
  40 C40            3.1348     3.0266     9.9435 C.ar    
  41 C41            3.5749     2.5812     8.6988 C.ar    
  42 C42            3.4032     3.3661     7.5943 C.ar    
  43 H43           -0.6634     2.2606     2.9974 H       
  44 H44           -1.1484     3.3587     0.7946 H       
  45 H45            0.2989    -0.2597     0.0570 H       
  46 H46           -0.0080    -0.2688     1.8102 H       
  47 H47           -2.4104     0.1808     1.3921 H       
  48 H48           -2.1035     0.1899    -0.3612 H       
  49 H49           -1.3043    -2.1540    -0.2334 H       
  50 H50           -1.6111    -2.1630     1.5199 H       
  51 H51           -4.0136    -1.7134     1.1017 H       
  52 H52           -3.7067    -1.7043    -0.6516 H       
  53 H53           -2.5657    -5.3318     0.3585 H       
  54 H54           -6.1154    -0.9338     0.0418 H       
  55 H55           -8.0454    -2.2306    -0.0614 H       
  56 H56          -10.0583    -3.9255     0.4031 H       
  57 H57           -9.8365    -3.8175    -1.3597 H       
  58 H58          -10.8826    -9.5370    -1.0098 H       
  59 H59          -10.4816    -8.1351    -2.9591 H       
  60 H60           -9.8754    -5.7668    -2.7072 H       
  61 H61            2.9579     3.9649     2.9131 H       
  62 H62            3.9493     4.5028     5.3607 H       
  63 H63            3.2052     5.9748     4.6913 H       
  64 H64            1.8195     7.3511     6.0358 H       
  65 H65            1.0822     8.0341     8.2784 H       
  66 H66            1.4138     6.5780    10.2008 H       
  67 H67           -9.7602    -5.0093     1.9889 H       
  68 H68          -10.1788    -6.4805     3.9171 H       
  69 H69          -10.7852    -8.8364     3.5546 H       
  70 H70            3.2737     2.3937    10.8075 H       
  71 H71            4.0476     1.6146     8.6067 H       
  72 H72            3.7379     3.0366     6.6218 H       
@<TRIPOS>BOND
   1    1    5 1
   2    1   38 1
   3    1    4 2
   4    2    3 2
   5    2   24 1
   6    2   38 1
   7    3   43 1
   8    4   44 1
   9    5    6 1
  10    5   45 1
  11    5   46 1
  12    6    7 1
  13    6   47 1
  14    6   48 1
  15    7    8 1
  16    7   49 1
  17    7   50 1
  18    8    9 1
  19    8   51 1
  20    8   52 1
  21    9   10 2
  22    9   13 1
  23   10   53 1
  24   11   12 2
  25   11   54 1
  26   12   13 1
  27   12   14 1
  28   14   15 am
  29   14   55 1
  30   15   16 2
  31   15   17 1
  32   17   18 1
  33   17   56 1
  34   17   57 1
  35   18   19 ar
  36   18   23 ar
  37   19   20 ar
  38   19   34 ar
  39   20   21 ar
  40   20   37 ar
  41   21   22 ar
  42   21   58 1
  43   22   23 ar
  44   22   59 1
  45   23   60 1
  46   24   25 am
  47   24   61 1
  48   25   26 2
  49   25   27 1
  50   27   28 1
  51   27   62 1
  52   27   63 1
  53   28   29 ar
  54   28   33 ar
  55   29   30 ar
  56   29   64 1
  57   30   31 ar
  58   30   65 1
  59   31   32 ar
  60   31   66 1
  61   32   33 ar
  62   32   39 ar
  63   33   42 ar
  64   34   35 ar
  65   34   67 1
  66   35   36 ar
  67   35   68 1
  68   36   37 ar
  69   36   69 1
  70   39   40 ar
  71   40   41 ar
  72   40   70 1
  73   41   42 ar
  74   41   71 1
  75   42   72 1

#	End of record

