#	Name: ASD01900407
#	Creating user name:	WinNT
#	Creation time:	15. 06. 2019 19:51

#	Modifying user name:	WinNT
#	Modification time:	15. 06. 2019 19:51

#	Program:	/corina/corina34_cracker 3.40 0067  02.08.2006

@<TRIPOS>MOLECULE
ASD01900407
  31   34    0    0    0
SMALL
NO_CHARGES


@<TRIPOS>ATOM
   1 N1             0.2002     1.3619    -0.3083 N.ar    
   2 C2             0.1419     0.0658    -0.1313 C.ar    
   3 C3             1.2851    -0.7392    -0.2148 C.ar    
   4 C4             2.5094    -0.1603    -0.4904 C.ar    
   5 C5             2.5543     1.2331    -0.6778 C.ar    
   6 C6             3.7617     1.8921    -0.9614 C.ar    
   7 C7             3.7663     3.2423    -1.1371 C.ar    
   8 C8             2.5881     3.9794    -1.0392 C.ar    
   9 C9             1.4006     3.3731    -0.7657 C.ar    
  10 C10            1.3543     1.9809    -0.5776 C.ar    
  11 N11            1.1884    -2.1189    -0.0202 N.pl3   
  12 C12            2.3677    -4.2876     0.6297 C.ar    
  13 C13            3.6440    -4.5502     1.1631 C.ar    
  14 C14            4.0142    -5.8709     1.4139 C.ar    
  15 C15            3.1056    -6.8702     1.1258 C.ar    
  16 C16            1.8634    -6.5385     0.6008 C.ar    
  17 N17            1.5303    -5.2889     0.3699 N.ar    
  18 N18            3.4098    -2.3225     0.8969 N.2     
  19 N19            4.2689    -3.3414     1.3210 N.pl3   
  20 C20            2.2827    -2.8333     0.4773 C.2     
  21 H21           -0.8113    -0.3939     0.0848 H       
  22 H22            3.4051    -0.7599    -0.5595 H       
  23 H23            4.6813     1.3311    -1.0393 H       
  24 H24            4.6952     3.7484    -1.3548 H       
  25 H25            2.6176     5.0495    -1.1824 H       
  26 H26            0.4968     3.9599    -0.6930 H       
  27 H27            0.3621    -2.5816    -0.2302 H       
  28 H28            4.9859    -6.1062     1.8224 H       
  29 H29            3.3597    -7.9040     1.3074 H       
  30 H30            1.1569    -7.3241     0.3770 H       
  31 H31            5.1643    -3.2127     1.6713 H       
@<TRIPOS>BOND
   1    1    2 ar
   2    1   10 ar
   3    2    3 ar
   4    2   21 1
   5    3    4 ar
   6    3   11 1
   7    4    5 ar
   8    4   22 1
   9    5    6 ar
  10    5   10 ar
  11    6    7 ar
  12    6   23 1
  13    7    8 ar
  14    7   24 1
  15    8    9 ar
  16    8   25 1
  17    9   10 ar
  18    9   26 1
  19   11   20 1
  20   11   27 1
  21   12   13 ar
  22   12   17 ar
  23   12   20 1
  24   13   14 ar
  25   13   19 1
  26   14   15 ar
  27   14   28 1
  28   15   16 ar
  29   15   29 1
  30   16   17 ar
  31   16   30 1
  32   18   19 1
  33   18   20 2
  34   19   31 1

#	End of record

