#	Name: ASD00843425
#	Creating user name:	WinNT
#	Creation time:	15. 06. 2019 18:46

#	Modifying user name:	WinNT
#	Modification time:	15. 06. 2019 18:46

#	Program:	/corina/corina34_cracker 3.40 0067  02.08.2006

@<TRIPOS>MOLECULE
ASD00843425
  84   89    0    0    0
SMALL
NO_CHARGES


@<TRIPOS>ATOM
   1 F1             5.7180    -2.5673    -1.8952 F       
   2 N2             0.9886     1.0637    -0.2178 N.ar    
   3 C3             1.1386    -0.2175    -0.5092 C.ar    
   4 C4             0.9620    -1.1906     0.4664 C.ar    
   5 C5             0.6260    -0.8024     1.7514 C.ar    
   6 C6             0.4778     0.5523     2.0165 C.ar    
   7 C7             0.6686     1.4645     0.9981 C.ar    
   8 C8             1.1335    -2.6494     0.1297 C.3     
   9 C9             0.7507    -3.5150     1.3112 C.2     
  10 C10            0.2966    -3.0169    -1.0973 C.3     
  11 C11           -1.1403    -2.6299    -0.8595 C.2     
  12 N12           -2.0855    -2.9608    -1.7616 N.am    
  13 O13           -1.4462    -2.0206     0.1435 O.2     
  14 C14           -3.4728    -2.4979    -1.6056 C.3     
  15 C15           -3.9189    -1.8459    -2.9186 C.3     
  16 N16           -3.6980    -2.7840    -4.0273 N.3     
  17 C17           -2.2706    -3.0913    -4.1889 C.3     
  18 C18           -1.7556    -3.7893    -2.9312 C.3     
  19 C19           -4.2697    -2.2657    -5.2773 C.3     
  20 C20           -3.9134    -3.2064    -6.4317 C.3     
  21 C21           -4.5623    -2.6943    -7.7196 C.3     
  22 N22           -6.0192    -2.6346    -7.5449 N.3     
  23 C23           -6.3877    -1.7012    -6.4729 C.3     
  24 C24           -5.7932    -2.1836    -5.1478 C.3     
  25 H25           -6.4774    -2.3907    -8.4101 H       
  26 O26           -0.3402    -3.5733     1.8380 O.2     
  27 N27            1.8464    -4.2071     1.6662 N.am    
  28 C28            2.5916    -2.9708    -0.1049 C.ar    
  29 C29            2.9441    -3.9110     0.8554 C.ar    
  30 C30            3.5129    -2.5205    -1.0234 C.ar    
  31 C31            4.8104    -3.0067    -0.9961 C.ar    
  32 C32            5.1737    -3.9446    -0.0430 C.ar    
  33 C33            4.2496    -4.3962     0.8782 C.ar    
  34 Cl34           6.7985    -4.5549    -0.0070 Cl      
  35 C35            1.4623    -6.8652     2.2671 C.ar    
  36 C36            0.1915    -7.0834     1.7555 C.ar    
  37 C37            2.3939    -7.8855     2.2579 C.ar    
  38 C38            2.0607    -9.1227     1.7390 C.ar    
  39 C39            0.7945    -9.3427     1.2283 C.ar    
  40 C40           -0.1406    -8.3262     1.2356 C.ar    
  41 H41            0.5366   -10.3102     0.8235 H       
  42 O42           -0.7268    -6.0816     1.7638 O.3     
  43 C43           -2.0149    -6.3778     1.2207 C.3     
  44 S44            1.8902    -5.2862     2.9216 S.o2    
  45 O45            3.2492    -5.3749     3.3272 O.2     
  46 O46            0.8383    -4.9189     3.8034 O.2     
  47 O47            1.4678    -0.5851    -1.7730 O.3     
  48 C48            1.5902     0.4588    -2.7412 C.3     
  49 C49            2.0650    -0.1316    -4.0705 C.3     
  50 F50            3.2650    -0.8228    -3.8717 F       
  51 F51            1.0956    -1.0123    -4.5623 F       
  52 H52            0.4819    -1.5366     2.5303 H       
  53 H53            0.2157     0.8888     3.0086 H       
  54 H54            0.5549     2.5195     1.1991 H       
  55 H55            0.6768    -2.4844    -1.9692 H       
  56 H56            0.3595    -4.0910    -1.2716 H       
  57 H57           -4.1188    -3.3465    -1.3802 H       
  58 H58           -3.5268    -1.7683    -0.7976 H       
  59 H59           -4.9782    -1.5961    -2.8592 H       
  60 H60           -3.3398    -0.9383    -3.0892 H       
  61 H61           -2.1345    -3.7446    -5.0507 H       
  62 H62           -1.7145    -2.1664    -4.3418 H       
  63 H63           -0.6751    -3.9160    -2.9991 H       
  64 H64           -2.2356    -4.7626    -2.8301 H       
  65 H65           -3.8663    -1.2732    -5.4784 H       
  66 H66           -2.8309    -3.2357    -6.5564 H       
  67 H67           -4.2822    -4.2083    -6.2118 H       
  68 H68           -4.1826    -1.6980    -7.9463 H       
  69 H69           -4.3223    -3.3698    -8.5407 H       
  70 H70           -5.9994    -0.7095    -6.7055 H       
  71 H71           -7.4734    -1.6553    -6.3886 H       
  72 H72           -6.1916    -3.1694    -4.9077 H       
  73 H73           -6.0538    -1.4822    -4.3552 H       
  74 H74            3.2247    -1.7897    -1.7644 H       
  75 H75            4.5397    -5.1274     1.6182 H       
  76 H76            3.3834    -7.7161     2.6562 H       
  77 H77            2.7906    -9.9187     1.7321 H       
  78 H78           -1.1295    -8.4987     0.8374 H       
  79 H79           -2.6498    -5.4944     1.2887 H       
  80 H80           -1.9102    -6.6704     0.1760 H       
  81 H81           -2.4673    -7.1945     1.7832 H       
  82 H82            0.6219     0.9390    -2.8821 H       
  83 H83            2.3137     1.1954    -2.3918 H       
  84 H84            2.2235     0.6724    -4.7892 H       
@<TRIPOS>BOND
   1    1   31 1
   2    2    3 ar
   3    2    7 ar
   4    3    4 ar
   5    3   47 1
   6    4    5 ar
   7    4    8 1
   8    5    6 ar
   9    5   52 1
  10    6    7 ar
  11    6   53 1
  12    7   54 1
  13    8    9 1
  14    8   10 1
  15    8   28 1
  16    9   26 2
  17    9   27 am
  18   10   11 1
  19   10   55 1
  20   10   56 1
  21   11   12 am
  22   11   13 2
  23   12   14 1
  24   12   18 1
  25   14   15 1
  26   14   57 1
  27   14   58 1
  28   15   16 1
  29   15   59 1
  30   15   60 1
  31   16   17 1
  32   16   19 1
  33   17   18 1
  34   17   61 1
  35   17   62 1
  36   18   63 1
  37   18   64 1
  38   19   20 1
  39   19   24 1
  40   19   65 1
  41   20   21 1
  42   20   66 1
  43   20   67 1
  44   21   22 1
  45   21   68 1
  46   21   69 1
  47   22   23 1
  48   22   25 1
  49   23   24 1
  50   23   70 1
  51   23   71 1
  52   24   72 1
  53   24   73 1
  54   27   44 am
  55   27   29 1
  56   28   29 ar
  57   28   30 ar
  58   29   33 ar
  59   30   31 ar
  60   30   74 1
  61   31   32 ar
  62   32   33 ar
  63   32   34 1
  64   33   75 1
  65   35   36 ar
  66   35   37 ar
  67   35   44 1
  68   36   42 1
  69   36   40 ar
  70   37   38 ar
  71   37   76 1
  72   38   39 ar
  73   38   77 1
  74   39   40 ar
  75   39   41 1
  76   40   78 1
  77   42   43 1
  78   43   79 1
  79   43   80 1
  80   43   81 1
  81   44   45 2
  82   44   46 2
  83   47   48 1
  84   48   49 1
  85   48   82 1
  86   48   83 1
  87   49   50 1
  88   49   51 1
  89   49   84 1

#	End of record

