#	Name: ASD02038340
#	Creating user name:	WinNT
#	Creation time:	15. 06. 2019 20:16

#	Modifying user name:	WinNT
#	Modification time:	15. 06. 2019 20:16

#	Program:	/corina/corina34_cracker 3.40 0067  02.08.2006

@<TRIPOS>MOLECULE
ASD02038340
  58   61    0    0    0
SMALL
NO_CHARGES


@<TRIPOS>ATOM
   1 C1             0.2630     1.6420    -0.2098 C.3     
   2 C2             0.1775     0.1169    -0.1158 C.3     
   3 N3             0.8108    -0.4839    -1.2966 N.3     
   4 C4             0.6260    -1.9412    -1.3090 C.3     
   5 C5             1.5734    -2.5840    -0.2941 C.3     
   6 C6             1.4896    -4.1072    -0.4119 C.3     
   7 O7             2.4573    -4.7057     0.4527 O.3     
   8 C8             2.5149    -6.0640     0.4680 C.ar    
   9 C9             3.4280    -6.7035     1.2819 C.ar    
  10 C10            1.6481    -6.8036    -0.3334 C.ar    
  11 C11            1.6916    -8.1801    -0.3301 C.ar    
  12 C12            2.6079    -8.8445     0.4787 C.ar    
  13 C13            3.4822    -8.1013     1.2936 C.ar    
  14 C14            2.2349    -0.1334    -1.3715 C.3     
  15 C15            2.3818     1.3843    -1.5030 C.3     
  16 C16            1.7332     2.0617    -0.2927 C.3     
  17 C17            1.8231     3.5811    -0.4481 C.3     
  18 C18            1.9457     4.5476     1.8575 C.ar    
  19 C19            1.1845     4.2467     0.7436 C.ar    
  20 N20            2.6674   -10.2232     0.4958 N.am    
  21 C21            3.5520   -10.8677     1.2766 C.2     
  22 C22            4.4531   -10.1688     2.1080 C.2     
  23 C23            4.4419    -8.8132     2.1396 C.2     
  24 O24            3.5761   -12.0864     1.2665 O.2     
  25 O25            1.1975    -2.1870     1.0262 O.3     
  26 O26            2.4120     1.6614     0.8993 O.3     
  27 C27            1.3599     5.1581     2.9507 C.ar    
  28 C28            0.0128     5.4677     2.9299 C.ar    
  29 C29           -0.7483     5.1672     1.8158 C.ar    
  30 C30           -0.1625     4.5567     0.7226 C.ar    
  31 H31           -0.2633     1.9816    -1.1019 H       
  32 H32           -0.1933     2.0872     0.6743 H       
  33 H33            0.6921    -0.2210     0.7837 H       
  34 H34           -0.8686    -0.1862    -0.0710 H       
  35 H35           -0.4046    -2.1790    -1.0455 H       
  36 H36            0.8445    -2.3267    -2.3049 H       
  37 H37            2.5946    -2.2597    -0.4942 H       
  38 H38            0.4918    -4.4395    -0.1257 H       
  39 H39            1.6898    -4.4035    -1.4416 H       
  40 H40            4.0966    -6.1284     1.9053 H       
  41 H41            0.9349    -6.2926    -0.9632 H       
  42 H42            1.0144    -8.7435    -0.9549 H       
  43 H43            2.7399    -0.4700    -0.4661 H       
  44 H44            2.6831    -0.6181    -2.2388 H       
  45 H45            3.4393     1.6454    -1.5429 H       
  46 H46            1.8889     1.7199    -2.4154 H       
  47 H47            2.8698     3.8785    -0.5127 H       
  48 H48            1.3024     3.8849    -1.3563 H       
  49 H49            2.9972     4.3017     1.8755 H       
  50 H50            2.0620   -10.7347    -0.0634 H       
  51 H51            5.1515   -10.7156     2.7240 H       
  52 H52            5.1281    -8.2705     2.7728 H       
  53 H53            0.2984    -2.4433     1.2730 H       
  54 H54            2.0531     2.0536     1.7070 H       
  55 H55            1.9546     5.3929     3.8211 H       
  56 H56           -0.4450     5.9441     3.7842 H       
  57 H57           -1.8008     5.4091     1.7996 H       
  58 H58           -0.7573     4.3216    -0.1477 H       
@<TRIPOS>BOND
   1    1    2 1
   2    1   16 1
   3    1   31 1
   4    1   32 1
   5    2    3 1
   6    2   33 1
   7    2   34 1
   8    3    4 1
   9    3   14 1
  10    4    5 1
  11    4   35 1
  12    4   36 1
  13    5    6 1
  14    5   25 1
  15    5   37 1
  16    6    7 1
  17    6   38 1
  18    6   39 1
  19    7    8 1
  20    8    9 ar
  21    8   10 ar
  22    9   13 ar
  23    9   40 1
  24   10   11 ar
  25   10   41 1
  26   11   12 ar
  27   11   42 1
  28   12   13 ar
  29   12   20 1
  30   13   23 1
  31   14   15 1
  32   14   43 1
  33   14   44 1
  34   15   16 1
  35   15   45 1
  36   15   46 1
  37   16   17 1
  38   16   26 1
  39   17   19 1
  40   17   47 1
  41   17   48 1
  42   18   19 ar
  43   18   27 ar
  44   18   49 1
  45   19   30 ar
  46   20   21 am
  47   20   50 1
  48   21   22 1
  49   21   24 2
  50   22   23 2
  51   22   51 1
  52   23   52 1
  53   25   53 1
  54   26   54 1
  55   27   28 ar
  56   27   55 1
  57   28   29 ar
  58   28   56 1
  59   29   30 ar
  60   29   57 1
  61   30   58 1

#	End of record

