#	Name: ASD01148477
#	Creating user name:	WinNT
#	Creation time:	15. 06. 2019 19:02

#	Modifying user name:	WinNT
#	Modification time:	15. 06. 2019 19:02

#	Program:	/corina/corina34_cracker 3.40 0067  02.08.2006

@<TRIPOS>MOLECULE
ASD01148477
  53   55    0    0    0
SMALL
NO_CHARGES


@<TRIPOS>ATOM
   1 C1             0.3638     1.8408     0.0684 C.ar    
   2 C2             0.4622     0.4640    -0.0067 C.ar    
   3 C3            -0.6818    -0.3070    -0.0941 C.ar    
   4 C4            -1.9243     0.2988    -0.1060 C.ar    
   5 C5            -2.0228     1.6755    -0.0300 C.ar    
   6 C6            -0.8789     2.4462     0.0619 C.ar    
   7 C7            -3.3773     2.3360    -0.0434 C.3     
   8 O8            -4.3695     1.4912     0.5741 O.3     
   9 C9            -3.3983     3.5754     0.8827 C.3     
  10 C10           -3.9252     3.0045     2.1856 C.2     
  11 N11           -4.4451     1.8488     1.9400 N.2     
  12 C12           -3.8554     3.6582     3.5072 C.ar    
  13 C13           -4.3824     3.0181     4.6321 C.ar    
  14 C14           -3.2573     4.9144     3.6344 C.ar    
  15 C15           -3.1923     5.5241     4.8670 C.ar    
  16 C16           -3.7243     4.8867     5.9905 C.ar    
  17 C17           -4.3174     3.6277     5.8642 C.ar    
  18 C18           -3.6545     5.5410     7.3132 C.2     
  19 O19           -4.2136     5.0402     8.2693 O.2     
  20 N20           -2.9708     6.6932     7.4599 N.am    
  21 C21           -4.8918     2.9404     7.0761 C.3     
  22 C22           -3.7870     2.7098    -1.4693 C.3     
  23 F23           -3.8260     1.5568    -2.2607 F       
  24 F24           -5.0529     3.3051    -1.4498 F       
  25 F25           -2.8568     3.6093    -2.0012 F       
  26 C26           -2.9055     7.3051     8.6968 C.2     
  27 N27           -3.4994     6.7732     9.7122 N.2     
  28 O28           -3.4325     7.4003    10.9800 O.3     
  29 C29           -4.1340     6.7028    12.0112 C.3     
  30 C30           -0.5745    -1.8079    -0.1770 C.3     
  31 F31            0.7735    -2.1813    -0.1482 F       
  32 F32           -1.2412    -2.3838     0.9097 F       
  33 F33           -1.1560    -2.2519    -1.3694 F       
  34 C34            1.6110     2.6813     0.1637 C.3     
  35 F35            2.7357     1.8492     0.1586 F       
  36 F36            1.6707     3.5527    -0.9291 F       
  37 F37            1.5846     3.4222     1.3501 F       
  38 H38            1.4330    -0.0093     0.0026 H       
  39 H39           -2.8181    -0.3035    -0.1750 H       
  40 H40           -0.9558     3.5219     0.1213 H       
  41 H41           -2.3936     3.9771     1.0145 H       
  42 H42           -4.0730     4.3379     0.4935 H       
  43 H43           -4.8411     2.0453     4.5344 H       
  44 H44           -2.8457     5.4070     2.7659 H       
  45 H45           -2.7296     6.4950     4.9655 H       
  46 H46           -2.5246     7.0929     6.6969 H       
  47 H47           -5.8995     3.3124     7.2613 H       
  48 H48           -4.9278     1.8652     6.9010 H       
  49 H49           -4.2635     3.1465     7.9426 H       
  50 H50           -2.3577     8.2284     8.8143 H       
  51 H51           -5.1884     6.6262    11.7456 H       
  52 H52           -3.7142     5.7033    12.1243 H       
  53 H53           -4.0346     7.2470    12.9504 H       
@<TRIPOS>BOND
   1    1    2 ar
   2    1   34 1
   3    1    6 ar
   4    2    3 ar
   5    2   38 1
   6    3    4 ar
   7    3   30 1
   8    4    5 ar
   9    4   39 1
  10    5    6 ar
  11    5    7 1
  12    6   40 1
  13    7    8 1
  14    7    9 1
  15    7   22 1
  16    8   11 1
  17    9   10 1
  18    9   41 1
  19    9   42 1
  20   10   11 2
  21   10   12 1
  22   12   13 ar
  23   12   14 ar
  24   13   17 ar
  25   13   43 1
  26   14   15 ar
  27   14   44 1
  28   15   16 ar
  29   15   45 1
  30   16   17 ar
  31   16   18 1
  32   17   21 1
  33   18   19 2
  34   18   20 am
  35   20   26 1
  36   20   46 1
  37   21   47 1
  38   21   48 1
  39   21   49 1
  40   22   23 1
  41   22   24 1
  42   22   25 1
  43   26   27 2
  44   26   50 1
  45   27   28 1
  46   28   29 1
  47   29   51 1
  48   29   52 1
  49   29   53 1
  50   30   31 1
  51   30   32 1
  52   30   33 1
  53   34   35 1
  54   34   36 1
  55   34   37 1

#	End of record

