#	Name: ASD01230128
#	Creating user name:	WinNT
#	Creation time:	15. 06. 2019 19:11

#	Modifying user name:	WinNT
#	Modification time:	15. 06. 2019 19:11

#	Program:	/corina/corina34_cracker 3.40 0067  02.08.2006

@<TRIPOS>MOLECULE
ASD01230128
  54   57    0    0    0
SMALL
NO_CHARGES


@<TRIPOS>ATOM
   1 P1            -0.0180     1.4758     0.0102 P.3     
   2 O2             0.0021    -0.0041     0.0020 O.2     
   3 O3             1.4924     2.0330    -0.0013 O.3     
   4 O4            -0.7967     2.0091    -1.2942 O.3     
   5 N5            -0.8057     2.0185     1.3948 N.3     
   6 O6            -2.8349     4.6347     1.8658 O.3     
   7 C7            -2.1647     3.9938     0.8977 C.2     
   8 C8            -0.8449     3.4864     1.4370 C.3     
   9 C9            -0.7979     3.9838     2.8990 C.3     
  10 C10           -1.9122     5.0549     2.9141 C.3     
  11 O11           -2.5560     3.8432    -0.2355 O.2     
  12 C12            2.3232     1.3961     0.8653 C.ar    
  13 C13            3.0337     0.2784     0.4523 C.ar    
  14 C14            3.8775    -0.3674     1.3351 C.ar    
  15 C15            4.0143     0.0993     2.6294 C.ar    
  16 C16            3.3069     1.2128     3.0436 C.ar    
  17 C17            2.4665     1.8658     2.1628 C.ar    
  18 C18           -2.0843     1.5269    -1.6833 C.3     
  19 O19           -1.6795     1.8726    -4.0670 O.3     
  20 C20           -2.5317     2.2407    -2.9605 C.3     
  21 C21           -3.9427     1.7678    -3.3748 C.3     
  22 C22           -3.8852     1.7216    -4.9181 C.3     
  23 C23           -2.4461     2.1721    -5.2537 C.3     
  24 O24           -4.9321     2.7020    -2.9384 O.3     
  25 F25           -4.1113     0.4200    -5.3784 F       
  26 F26           -4.8173     2.6069    -5.4701 F       
  27 C27           -1.5920     2.0677    -7.5271 C.2     
  28 N28           -1.1145     1.3996    -8.5937 N.am    
  29 C29           -0.9669     0.0602    -8.5463 C.2     
  30 C30           -1.3183    -0.6360    -7.3647 C.2     
  31 C31           -1.7945     0.0591    -6.3096 C.2     
  32 N32           -1.9295     1.4178    -6.3985 N.am    
  33 O33           -0.5358    -0.5451    -9.5110 O.2     
  34 O34           -1.7153     3.2760    -7.5828 O.2     
  35 H35           -1.7348     1.6300     1.4581 H       
  36 H36           -0.0158     3.9054     0.8669 H       
  37 H37           -1.0279     3.1745     3.5920 H       
  38 H38            0.1710     4.4281     3.1269 H       
  39 H39           -1.4989     6.0374     2.6860 H       
  40 H40           -2.4149     5.0676     3.8811 H       
  41 H41            2.9269    -0.0868    -0.5585 H       
  42 H42            4.4305    -1.2378     1.0141 H       
  43 H43            4.6745    -0.4069     3.3181 H       
  44 H44            3.4149     1.5750     4.0553 H       
  45 H45            1.9180     2.7383     2.4854 H       
  46 H46           -2.0302     0.4538    -1.8667 H       
  47 H47           -2.8019     1.7236    -0.8868 H       
  48 H48           -2.5207     3.3210    -2.8162 H       
  49 H49           -4.1474     0.7765    -2.9704 H       
  50 H50           -2.4220     3.2419    -5.4611 H       
  51 H51           -5.8371     2.4543    -3.1721 H       
  52 H52           -0.8759     1.8837    -9.3997 H       
  53 H53           -1.2074    -1.7088    -7.3082 H       
  54 H54           -2.0677    -0.4550    -5.3999 H       
@<TRIPOS>BOND
   1    1    2 2
   2    1    3 1
   3    1    4 1
   4    1    5 1
   5    3   12 1
   6    4   18 1
   7    5    8 1
   8    5   35 1
   9    6    7 1
  10    6   10 1
  11    7    8 1
  12    7   11 2
  13    8    9 1
  14    8   36 1
  15    9   10 1
  16    9   37 1
  17    9   38 1
  18   10   39 1
  19   10   40 1
  20   12   13 ar
  21   12   17 ar
  22   13   14 ar
  23   13   41 1
  24   14   15 ar
  25   14   42 1
  26   15   16 ar
  27   15   43 1
  28   16   17 ar
  29   16   44 1
  30   17   45 1
  31   18   20 1
  32   18   46 1
  33   18   47 1
  34   19   20 1
  35   19   23 1
  36   20   21 1
  37   20   48 1
  38   21   22 1
  39   21   24 1
  40   21   49 1
  41   22   23 1
  42   22   25 1
  43   22   26 1
  44   23   32 1
  45   23   50 1
  46   24   51 1
  47   27   28 am
  48   27   32 am
  49   27   34 2
  50   28   29 am
  51   28   52 1
  52   29   30 1
  53   29   33 2
  54   30   31 2
  55   30   53 1
  56   31   32 1
  57   31   54 1

#	End of record

