#	Name: ASD01910629
#	Creating user name:	WinNT
#	Creation time:	15. 06. 2019 19:56

#	Modifying user name:	WinNT
#	Modification time:	15. 06. 2019 19:56

#	Program:	/corina/corina34_cracker 3.40 0067  02.08.2006

@<TRIPOS>MOLECULE
ASD01910629
  43   46    0    0    0
SMALL
NO_CHARGES


@<TRIPOS>ATOM
   1 C1            -0.6948     1.7990    -1.9530 C.ar    
   2 C2            -0.7605     0.4370    -1.7145 C.ar    
   3 C3             0.3183    -0.2029    -1.1220 C.ar    
   4 C4             1.4312     0.5501    -0.7878 C.ar    
   5 C5             1.4289     1.9182    -1.0570 C.ar    
   6 N6             0.3752     2.4919    -1.6255 N.ar    
   7 C7             2.6103     2.7372    -0.7061 C.2     
   8 N8             2.7547     4.0355    -0.8980 N.2     
   9 C9             3.9756     4.3352    -0.4283 C.2     
  10 N10            4.5069     3.2350     0.0173 N.2     
  11 O11            3.7405     2.3058    -0.1258 O.3     
  12 C12            4.6154     5.6996    -0.4193 C.3     
  13 C13            4.9327     6.1054     1.0218 C.3     
  14 C14            5.5524     7.5047     1.0348 C.3     
  15 C15            6.8609     7.4868     0.2382 C.3     
  16 N16            6.5889     6.9597    -1.1060 N.am    
  17 C17            5.9132     5.6612    -1.2323 C.3     
  18 C18            6.9525     7.6541    -2.2024 C.2     
  19 C19            7.5552     8.9954    -2.0609 C.ar    
  20 O20            6.7844     7.1767    -3.3077 O.2     
  21 C21            8.6300     9.1922    -1.1918 C.ar    
  22 C22            9.1896    10.4458    -1.0627 C.ar    
  23 C23            8.6874    11.5107    -1.7933 C.ar    
  24 C24            7.6183    11.3220    -2.6593 C.ar    
  25 C25            7.0554    10.0697    -2.8005 C.ar    
  26 F26            9.2395    12.7368    -1.6624 F       
  27 F27            7.1325    12.3640    -3.3687 F       
  28 H28           -1.5314     2.2992    -2.4182 H       
  29 H29           -1.6435    -0.1221    -1.9867 H       
  30 H30            0.2906    -1.2645    -0.9256 H       
  31 H31            2.2887     0.0844    -0.3250 H       
  32 H32            3.9312     6.4251    -0.8593 H       
  33 H33            4.0142     6.1097     1.6086 H       
  34 H34            5.6357     5.3929     1.4533 H       
  35 H35            4.8599     8.2135     0.5809 H       
  36 H36            5.7567     7.8026     2.0632 H       
  37 H37            7.2553     8.4999     0.1606 H       
  38 H38            7.5863     6.8476     0.7415 H       
  39 H39            6.5613     4.8731    -0.8490 H       
  40 H40            5.6823     5.4698    -2.2803 H       
  41 H41            9.0223     8.3636    -0.6210 H       
  42 H42           10.0210    10.5980    -0.3904 H       
  43 H43            6.2242     9.9228    -3.4742 H       
@<TRIPOS>BOND
   1    1    2 ar
   2    1    6 ar
   3    1   28 1
   4    2    3 ar
   5    2   29 1
   6    3    4 ar
   7    3   30 1
   8    4    5 ar
   9    4   31 1
  10    5    6 ar
  11    5    7 1
  12    7    8 2
  13    7   11 1
  14    8    9 1
  15    9   10 2
  16    9   12 1
  17   10   11 1
  18   12   13 1
  19   12   17 1
  20   12   32 1
  21   13   14 1
  22   13   33 1
  23   13   34 1
  24   14   15 1
  25   14   35 1
  26   14   36 1
  27   15   16 1
  28   15   37 1
  29   15   38 1
  30   16   17 1
  31   16   18 am
  32   17   39 1
  33   17   40 1
  34   18   19 1
  35   18   20 2
  36   19   21 ar
  37   19   25 ar
  38   21   22 ar
  39   21   41 1
  40   22   23 ar
  41   22   42 1
  42   23   24 ar
  43   23   26 1
  44   24   25 ar
  45   24   27 1
  46   25   43 1

#	End of record

