#	Name: ASD08710039
#	Creating user name:	WinNT
#	Creation time:	15. 06. 2019 21:19

#	Modifying user name:	WinNT
#	Modification time:	15. 06. 2019 21:19

#	Program:	/corina/corina34_cracker 3.40 0067  02.08.2006

@<TRIPOS>MOLECULE
ASD08710039
  55   57    0    0    0
SMALL
NO_CHARGES


@<TRIPOS>ATOM
   1 C1             3.3506     2.5969    -0.3104 C.ar    
   2 C2             2.9946     1.2666    -0.2254 C.ar    
   3 C3             2.7453     3.4186    -1.2631 C.ar    
   4 C4             1.7827     2.8870    -2.1240 C.ar    
   5 C5             1.4363     1.5554    -2.0279 C.ar    
   6 C6             2.0406     0.7465    -1.0816 C.ar    
   7 S7             1.5920    -0.9535    -0.9660 S.o2    
   8 O8             2.4225    -1.5202     0.0383 O.2     
   9 O9             0.1725    -0.9913    -0.9131 O.2     
  10 N10            2.0262    -1.6732    -2.3928 N.am    
  11 C11            3.4137    -2.0991    -2.6239 C.3     
  12 C12            1.0296    -1.9030    -3.4482 C.3     
  13 C13            1.0357    -3.3930    -3.8119 C.3     
  14 N14            2.4243    -3.8138    -4.0453 N.am    
  15 C15            3.4147    -3.5887    -2.9894 C.3     
  16 C16            2.7775    -4.4003    -5.2062 C.2     
  17 C17            1.7921    -4.5307    -6.2965 C.ar    
  18 O18            3.9082    -4.8221    -5.3549 O.2     
  19 C19            2.1627    -4.2819    -7.6192 C.ar    
  20 N20            1.2842    -4.3984    -8.5928 N.ar    
  21 C21            0.0279    -4.7525    -8.3575 C.ar    
  22 C22           -0.4112    -5.0160    -7.0615 C.ar    
  23 C23            0.4705    -4.9122    -6.0195 C.ar    
  24 C24            3.1095     4.8003    -1.3568 C.1     
  25 N25           -0.8600    -4.8614    -9.4144 N.pl3   
  26 C26           -2.2742    -5.1441    -9.1569 C.3     
  27 C27           -0.3852    -4.6938   -10.7902 C.3     
  28 C28            0.3978     0.9799    -2.9560 C.3     
  29 C29            0.4396    -4.2051    -2.6604 C.3     
  30 N30            3.3984     5.8964    -1.4311 N.1     
  31 H31            4.0925     3.0026     0.3613 H       
  32 H32            3.4620     0.6298     0.5111 H       
  33 H33            1.3103     3.5172    -2.8630 H       
  34 H34            3.8421    -1.5213    -3.4428 H       
  35 H35            3.9996    -1.9444    -1.7179 H       
  36 H36            0.0415    -1.6188    -3.0865 H       
  37 H37            1.2845    -1.3109    -4.3272 H       
  38 H38            0.4486    -3.5511    -4.7166 H       
  39 H39            4.4039    -3.8715    -3.3493 H       
  40 H40            3.1573    -4.1841    -2.1134 H       
  41 H41            3.1779    -3.9912    -7.8456 H       
  42 H42           -1.4365    -5.3036    -6.8812 H       
  43 H43            0.1542    -5.1117    -5.0063 H       
  44 H44           -2.8162    -4.2061    -9.0363 H       
  45 H45           -2.6923    -5.6999    -9.9962 H       
  46 H46           -2.3664    -5.7367    -8.2467 H       
  47 H47           -0.0762    -5.6604   -11.1882 H       
  48 H48           -1.1886    -4.2878   -11.4049 H       
  49 H49            0.4624    -4.0086   -10.8011 H       
  50 H50            0.8835     0.6045    -3.8567 H       
  51 H51           -0.1230     0.1629    -2.4566 H       
  52 H52           -0.3183     1.7561    -3.2260 H       
  53 H53           -0.5851    -3.8807    -2.4793 H       
  54 H54            0.4450    -5.2634    -2.9212 H       
  55 H55            1.0343    -4.0497    -1.7602 H       
@<TRIPOS>BOND
   1    1    2 ar
   2    1    3 ar
   3    1   31 1
   4    2    6 ar
   5    2   32 1
   6    3    4 ar
   7    3   24 1
   8    4    5 ar
   9    4   33 1
  10    5    6 ar
  11    5   28 1
  12    6    7 1
  13    7    8 2
  14    7    9 2
  15    7   10 am
  16   10   11 1
  17   10   12 1
  18   11   15 1
  19   11   34 1
  20   11   35 1
  21   12   13 1
  22   12   36 1
  23   12   37 1
  24   13   14 1
  25   13   29 1
  26   13   38 1
  27   14   15 1
  28   14   16 am
  29   15   39 1
  30   15   40 1
  31   16   17 1
  32   16   18 2
  33   17   19 ar
  34   17   23 ar
  35   19   20 ar
  36   19   41 1
  37   20   21 ar
  38   21   22 ar
  39   21   25 1
  40   22   23 ar
  41   22   42 1
  42   23   43 1
  43   24   30 3
  44   25   26 1
  45   25   27 1
  46   26   44 1
  47   26   45 1
  48   26   46 1
  49   27   47 1
  50   27   48 1
  51   27   49 1
  52   28   50 1
  53   28   51 1
  54   28   52 1
  55   29   53 1
  56   29   54 1
  57   29   55 1

#	End of record

