#	Name: ASD02198856
#	Creating user name:	WinNT
#	Creation time:	15. 06. 2019 20:20

#	Modifying user name:	WinNT
#	Modification time:	15. 06. 2019 20:20

#	Program:	/corina/corina34_cracker 3.40 0067  02.08.2006

@<TRIPOS>MOLECULE
ASD02198856
  55   59    0    0    0
SMALL
NO_CHARGES


@<TRIPOS>ATOM
   1 C1            -0.0433     1.5017    -0.1150 C.2     
   2 C2            -0.0730     0.1620     0.0975 C.2     
   3 N3             1.0713    -0.5395     0.2603 N.pl3   
   4 N4             2.2358    -0.0047     0.2263 N.2     
   5 C5             2.4072     1.2848     0.0276 C.2     
   6 C6             1.2215     2.1358    -0.1605 C.2     
   7 C7             0.9799    -1.9179     0.4772 C.ar    
   8 C8             1.5821    -2.4886     1.5983 C.ar    
   9 C9             1.4909    -3.8527     1.8119 C.ar    
  10 C10            0.7979    -4.6525     0.9065 C.ar    
  11 C11            0.1975    -4.0777    -0.2127 C.ar    
  12 C12            0.2844    -2.7174    -0.4212 C.ar    
  13 C13            3.7641     1.8672    -0.0050 C.2     
  14 N14            4.3061     2.6070    -1.0182 N.pl3   
  15 N15            5.6079     2.9588    -0.6403 N.2     
  16 C16            5.8517     2.4596     0.5452 C.2     
  17 C17            4.7198     1.7719     0.9828 C.2     
  18 C18            3.6732     2.9512    -2.2194 C.ar    
  19 C19            3.8070     4.2342    -2.7332 C.ar    
  20 C20            3.1822     4.5712    -3.9183 C.ar    
  21 C21            2.4237     3.6329    -4.5930 C.ar    
  22 C22            2.2877     2.3530    -4.0836 C.ar    
  23 C23            2.9155     2.0084    -2.9015 C.ar    
  24 O24            1.3244     3.3389    -0.3487 O.2     
  25 C25            0.6989    -6.1162     1.1329 C.2     
  26 C26            1.2523    -6.8307     2.2134 C.2     
  27 N27            0.9517    -8.0933     2.0617 N.2     
  28 N28            0.2008    -8.2340     0.8883 N.pl3   
  29 C29            0.0503    -7.0135     0.3353 C.2     
  30 C30           -0.3344    -9.4899     0.3566 C.3     
  31 Cl31           1.3337     1.1778    -4.9337 Cl      
  32 F32           -0.6062   -10.3655     1.4133 F       
  33 F33           -1.5137    -9.2319    -0.3504 F       
  34 C34            7.1403     2.6077     1.3123 C.3     
  35 O35            2.2581    -1.7057     2.4799 O.3     
  36 C36            2.8497    -2.3577     3.6055 C.3     
  37 H37           -0.9547     2.0653    -0.2496 H       
  38 H38           -1.0228    -0.3505     0.1374 H       
  39 H39            1.9569    -4.2966     2.6793 H       
  40 H40           -0.3399    -4.6979    -0.9148 H       
  41 H41           -0.1818    -2.2741    -1.2887 H       
  42 H42            4.6140     1.2524     1.9238 H       
  43 H43            4.3987     4.9683    -2.2066 H       
  44 H44            3.2862     5.5691    -4.3180 H       
  45 H45            1.9360     3.8990    -5.5191 H       
  46 H46            2.8094     1.0098    -2.5041 H       
  47 H47            1.8255    -6.4086     3.0256 H       
  48 H48           -0.4814    -6.7880    -0.5773 H       
  49 H49            0.3981    -9.9430    -0.3115 H       
  50 H50            7.0929     3.5025     1.9330 H       
  51 H51            7.2885     1.7333     1.9460 H       
  52 H52            7.9717     2.6945     0.6127 H       
  53 H53            2.0728    -2.8520     4.1887 H       
  54 H54            3.5705    -3.0983     3.2589 H       
  55 H55            3.3570    -1.6202     4.2273 H       
@<TRIPOS>BOND
   1    1    2 2
   2    1    6 1
   3    1   37 1
   4    2    3 1
   5    2   38 1
   6    3    4 1
   7    3    7 1
   8    4    5 2
   9    5    6 1
  10    5   13 1
  11    6   24 2
  12    7    8 ar
  13    7   12 ar
  14    8    9 ar
  15    8   35 1
  16    9   10 ar
  17    9   39 1
  18   10   11 ar
  19   10   25 1
  20   11   12 ar
  21   11   40 1
  22   12   41 1
  23   13   14 1
  24   13   17 2
  25   14   15 1
  26   14   18 1
  27   15   16 2
  28   16   17 1
  29   16   34 1
  30   17   42 1
  31   18   19 ar
  32   18   23 ar
  33   19   20 ar
  34   19   43 1
  35   20   21 ar
  36   20   44 1
  37   21   22 ar
  38   21   45 1
  39   22   23 ar
  40   22   31 1
  41   23   46 1
  42   25   26 1
  43   25   29 2
  44   26   27 2
  45   26   47 1
  46   27   28 1
  47   28   29 1
  48   28   30 1
  49   29   48 1
  50   30   32 1
  51   30   33 1
  52   30   49 1
  53   34   50 1
  54   34   51 1
  55   34   52 1
  56   35   36 1
  57   36   53 1
  58   36   54 1
  59   36   55 1

#	End of record

