#	Name: ASD01880961
#	Creating user name:	WinNT
#	Creation time:	15. 06. 2019 19:41

#	Modifying user name:	WinNT
#	Modification time:	15. 06. 2019 19:41

#	Program:	/corina/corina34_cracker 3.40 0067  02.08.2006

@<TRIPOS>MOLECULE
ASD01880961
  46   49    0    0    0
SMALL
NO_CHARGES


@<TRIPOS>ATOM
   1 N1             0.0645     1.3765    -0.6397 N.ar    
   2 C2             0.1102     0.0792    -0.8731 C.ar    
   3 N3             1.2186    -0.6174    -0.7100 N.ar    
   4 C4             2.3363    -0.0341    -0.3028 C.ar    
   5 C5             2.3334     1.3243    -0.0469 C.ar    
   6 C6             1.1453     2.0302    -0.2289 C.ar    
   7 C7             3.5840     2.0248     0.4183 C.3     
   8 O8             4.6493     1.0782     0.5231 O.3     
   9 C9             5.8542     1.5494     0.9329 C.ar    
  10 C10            6.9347     0.6807     1.0564 C.ar    
  11 C11            8.1532     1.1575     1.4704 C.ar    
  12 C12            8.3181     2.5142     1.7701 C.ar    
  13 C13            7.2292     3.3835     1.6444 C.ar    
  14 C14            6.0090     2.8990     1.2229 C.ar    
  15 C15            9.4930     0.5046     1.7031 C.3     
  16 N16           10.3976     1.5722     2.1447 N.am    
  17 C17            9.7153     2.7296     2.1818 C.2     
  18 O18           10.1852     3.8024     2.5086 O.2     
  19 Cl19          -1.3271    -0.7338    -1.4087 Cl      
  20 Cl20           7.4154     5.0697     2.0125 Cl      
  21 O21            1.0939     3.3633     0.0092 O.3     
  22 C22           -0.1132     3.9813    -0.0805 C.ar    
  23 C23           -1.0446     3.8383     0.9379 C.ar    
  24 C24           -2.2706     4.4679     0.8445 C.ar    
  25 C25           -2.5699     5.2402    -0.2627 C.ar    
  26 C26           -1.6435     5.3843    -1.2789 C.ar    
  27 C27           -0.4140     4.7611    -1.1880 C.ar    
  28 C28           12.6680     1.6050     1.2362 C.3     
  29 C29           11.8118     1.4044     2.4882 C.3     
  30 H30            3.2386    -0.6130    -0.1719 H       
  31 H31            3.8552     2.7990    -0.2994 H       
  32 H32            3.4047     2.4794     1.3926 H       
  33 H33            6.8142    -0.3677     0.8270 H       
  34 H34            5.1683     3.5700     1.1255 H       
  35 H35            9.4085    -0.2588     2.4765 H       
  36 H36            9.8599     0.0617     0.7771 H       
  37 H37           -0.8114     3.2349     1.8027 H       
  38 H38           -2.9960     4.3565     1.6368 H       
  39 H39           -3.5291     5.7313    -0.3340 H       
  40 H40           -1.8798     5.9878    -2.1429 H       
  41 H41            0.3094     4.8743    -1.9818 H       
  42 H42           12.3874     0.8693     0.4824 H       
  43 H43           12.5064     2.6084     0.8424 H       
  44 H44           13.7202     1.4800     1.4917 H       
  45 H45           12.0924     2.1400     3.2420 H       
  46 H46           11.9734     0.4009     2.8819 H       
@<TRIPOS>BOND
   1    1    2 ar
   2    1    6 ar
   3    2    3 ar
   4    2   19 1
   5    3    4 ar
   6    4    5 ar
   7    4   30 1
   8    5    6 ar
   9    5    7 1
  10    6   21 1
  11    7    8 1
  12    7   31 1
  13    7   32 1
  14    8    9 1
  15    9   10 ar
  16    9   14 ar
  17   10   11 ar
  18   10   33 1
  19   11   12 ar
  20   11   15 1
  21   12   13 ar
  22   12   17 1
  23   13   14 ar
  24   13   20 1
  25   14   34 1
  26   15   16 1
  27   15   35 1
  28   15   36 1
  29   16   17 am
  30   16   29 1
  31   17   18 2
  32   21   22 1
  33   22   23 ar
  34   22   27 ar
  35   23   24 ar
  36   23   37 1
  37   24   25 ar
  38   24   38 1
  39   25   26 ar
  40   25   39 1
  41   26   27 ar
  42   26   40 1
  43   27   41 1
  44   28   29 1
  45   28   42 1
  46   28   43 1
  47   28   44 1
  48   29   45 1
  49   29   46 1

#	End of record

