#	Name: ASD02560312
#	Creating user name:	WinNT
#	Creation time:	15. 06. 2019 20:25

#	Modifying user name:	WinNT
#	Modification time:	15. 06. 2019 20:25

#	Program:	/corina/corina34_cracker 3.40 0067  02.08.2006

@<TRIPOS>MOLECULE
ASD02560312
  32   34    0    0    0
SMALL
NO_CHARGES


@<TRIPOS>ATOM
   1 C1            -0.0291     1.3480    -0.1098 C.2     
   2 O2            -0.0054     0.0031    -0.0344 O.3     
   3 C3            -1.2899    -0.3991    -0.0498 C.2     
   4 N4            -2.0334     0.6774    -0.1315 N.2     
   5 N5            -1.2756     1.7167    -0.1613 N.2     
   6 N6            -1.7414    -1.7054     0.0091 N.pl3   
   7 C7             1.1705     2.2601    -0.1253 C.3     
   8 C8             1.5286     2.6430     1.2876 C.ar    
   9 C9             2.4173     1.8675     2.0105 C.ar    
  10 C10            2.7460     2.2198     3.3075 C.ar    
  11 C11            2.1868     3.3463     3.8808 C.ar    
  12 C12            1.2984     4.1212     3.1592 C.ar    
  13 C13            0.9732     3.7731     1.8602 C.ar    
  14 C14           -3.1100    -1.9676     0.1264 C.ar    
  15 C15           -3.5808    -3.2719     0.0250 C.ar    
  16 C16           -4.9338    -3.5268     0.1414 C.ar    
  17 C17           -5.8188    -2.4862     0.3579 C.ar    
  18 C18           -5.3534    -1.1883     0.4591 C.ar    
  19 C19           -4.0013    -0.9267     0.3499 C.ar    
  20 Cl20           3.1194     0.4524     1.2907 Cl      
  21 Cl21          -0.1421     4.7469     0.9537 Cl      
  22 Cl22          -2.4704    -4.5781    -0.2479 Cl      
  23 H23           -1.1086    -2.4395    -0.0309 H       
  24 H24            2.0128     1.7448    -0.5867 H       
  25 H25            0.9367     3.1582    -0.6969 H       
  26 H26            3.4396     1.6143     3.8721 H       
  27 H27            2.4437     3.6209     4.8933 H       
  28 H28            0.8612     5.0009     3.6080 H       
  29 H29           -5.3007    -4.5396     0.0628 H       
  30 H30           -6.8760    -2.6880     0.4478 H       
  31 H31           -6.0475    -0.3782     0.6279 H       
  32 H32           -3.6388     0.0876     0.4291 H       
@<TRIPOS>BOND
   1    1    2 1
   2    1    7 1
   3    1    5 2
   4    2    3 1
   5    3    4 2
   6    3    6 1
   7    4    5 1
   8    6   14 1
   9    6   23 1
  10    7    8 1
  11    7   24 1
  12    7   25 1
  13    8    9 ar
  14    8   13 ar
  15    9   10 ar
  16    9   20 1
  17   10   11 ar
  18   10   26 1
  19   11   12 ar
  20   11   27 1
  21   12   13 ar
  22   12   28 1
  23   13   21 1
  24   14   15 ar
  25   14   19 ar
  26   15   16 ar
  27   15   22 1
  28   16   17 ar
  29   16   29 1
  30   17   18 ar
  31   17   30 1
  32   18   19 ar
  33   18   31 1
  34   19   32 1

#	End of record

