#	Name: ASD04840056
#	Creating user name:	WinNT
#	Creation time:	15. 06. 2019 20:52

#	Modifying user name:	WinNT
#	Modification time:	15. 06. 2019 20:52

#	Program:	/corina/corina34_cracker 3.40 0067  02.08.2006

@<TRIPOS>MOLECULE
ASD04840056
  47   48    0    0    0
SMALL
NO_CHARGES


@<TRIPOS>ATOM
   1 C1            -0.6649     2.0731    -0.2270 C.ar    
   2 C2            -0.7709     0.7369     0.1330 C.ar    
   3 C3             0.3328     0.0371     0.5696 C.ar    
   4 C4             1.5667     0.6736     0.6507 C.ar    
   5 C5             1.6690     2.0282     0.2841 C.ar    
   6 C6             0.5377     2.7182    -0.1550 C.ar    
   7 N7             2.8225     0.2615     1.0367 N.pl3   
   8 C8             3.7069     1.2999     0.9276 C.2     
   9 C9             3.0738     2.3951     0.4785 C.2     
  10 C10            3.6912     3.7458     0.2229 C.3     
  11 C11            4.3203     3.7634    -1.1717 C.3     
  12 P12            3.0105     3.6161    -2.4310 P.3     
  13 O13            1.8548     4.4544    -2.0412 O.2     
  14 O14            3.5767     4.1111    -3.8546 O.3     
  15 O15            2.5448     2.0790    -2.5437 O.3     
  16 P16            5.2212     5.3298    -1.4122 P.3     
  17 O17            4.2807     6.4650    -1.2810 O.2     
  18 O18            6.3780     5.4599    -0.3000 O.3     
  19 O19            5.8832     5.3483    -2.8797 O.3     
  20 C20            5.1743     1.2252     1.2625 C.3     
  21 C21            5.3427     0.8434     2.7345 C.3     
  22 C22            5.8453     0.1692     0.3818 C.3     
  23 C23            5.6769     0.5510    -1.0902 C.3     
  24 C24            7.3351     0.0934     0.7218 C.3     
  25 H25           -1.5389     2.6061    -0.5710 H       
  26 H26           -1.7283     0.2409     0.0707 H       
  27 H27            0.2399    -1.0023     0.8481 H       
  28 H28            0.6127     3.7580    -0.4372 H       
  29 H29            3.0467    -0.6318     1.3410 H       
  30 H30            2.9210     4.5147     0.2838 H       
  31 H31            4.4598     3.9414     0.9707 H       
  32 H32            5.0129     2.9273    -1.2683 H       
  33 H33            3.8762     5.0305    -3.8606 H       
  34 H34            2.2984     1.6797    -1.6982 H       
  35 H35            7.0316     4.7478    -0.3271 H       
  36 H36            6.3796     6.1543    -3.0772 H       
  37 H37            5.6377     2.1954     1.0835 H       
  38 H38            4.8646     1.5956     3.3620 H       
  39 H39            4.8793    -0.1268     2.9135 H       
  40 H40            6.4040     0.7893     2.9768 H       
  41 H41            5.3819    -0.8010     0.5608 H       
  42 H42            6.1403     1.5212    -1.2692 H       
  43 H43            6.1550    -0.2012    -1.7176 H       
  44 H44            4.6156     0.6051    -1.3324 H       
  45 H45            7.4551    -0.1786     1.7705 H       
  46 H46            7.8132    -0.6589     0.0944 H       
  47 H47            7.7985     1.0636     0.5428 H       
@<TRIPOS>BOND
   1    1    2 ar
   2    1    6 ar
   3    1   25 1
   4    2    3 ar
   5    2   26 1
   6    3    4 ar
   7    3   27 1
   8    4    5 ar
   9    4    7 1
  10    5    6 ar
  11    5    9 1
  12    6   28 1
  13    7    8 1
  14    7   29 1
  15    8    9 2
  16    8   20 1
  17    9   10 1
  18   10   11 1
  19   10   30 1
  20   10   31 1
  21   11   12 1
  22   11   16 1
  23   11   32 1
  24   12   13 2
  25   12   14 1
  26   12   15 1
  27   14   33 1
  28   15   34 1
  29   16   17 2
  30   16   18 1
  31   16   19 1
  32   18   35 1
  33   19   36 1
  34   20   21 1
  35   20   22 1
  36   20   37 1
  37   21   38 1
  38   21   39 1
  39   21   40 1
  40   22   23 1
  41   22   24 1
  42   22   41 1
  43   23   42 1
  44   23   43 1
  45   23   44 1
  46   24   45 1
  47   24   46 1
  48   24   47 1

#	End of record

