#	Name: ASD01840262
#	Creating user name:	WinNT
#	Creation time:	15. 06. 2019 19:37

#	Modifying user name:	WinNT
#	Modification time:	15. 06. 2019 19:37

#	Program:	/corina/corina34_cracker 3.40 0067  02.08.2006

@<TRIPOS>MOLECULE
ASD01840262
  41   44    0    0    0
SMALL
NO_CHARGES


@<TRIPOS>ATOM
   1 C1            -0.0184     1.5028     0.0103 C.3     
   2 C2             0.0021    -0.0041     0.0020 C.2     
   3 N3            -1.0410    -0.7962     0.0024 N.2     
   4 C4            -0.5424    -2.0531    -0.0075 C.2     
   5 N5             0.7612    -1.9513    -0.0133 N.2     
   6 O6             1.0880    -0.7833    -0.0130 O.3     
   7 C7            -1.3279    -3.3125    -0.0107 C.ar    
   8 C8            -2.7204    -3.2680    -0.0089 C.ar    
   9 C9            -3.4459    -4.4422    -0.0118 C.ar    
  10 C10           -2.7928    -5.6615    -0.0161 C.ar    
  11 C11           -3.5903    -6.9402    -0.0193 C.3     
  12 N12           -3.8499    -7.3504    -1.4015 N.am    
  13 C13           -4.5513    -8.4739    -1.6506 C.2     
  14 O14           -4.9692    -9.1481    -0.7269 O.2     
  15 C15           -4.8104    -8.8832    -3.0299 C.2     
  16 S16           -4.2593    -8.0076    -4.4450 S.3     
  17 C17           -4.9918    -9.1681    -5.5425 C.ar    
  18 C18           -5.0215    -9.2144    -6.9402 C.ar    
  19 N19           -5.6361   -10.1890    -7.5695 N.ar    
  20 C20           -6.2513   -11.1653    -6.9240 C.ar    
  21 C21           -6.2768   -11.2058    -5.5500 C.ar    
  22 F22           -6.9102   -12.2111    -4.9070 F       
  23 C23           -5.6302   -10.1812    -4.8173 C.ar    
  24 C24           -5.5042    -9.9941    -3.3840 C.2     
  25 N25           -6.0492   -10.8721    -2.4567 N.pl3   
  26 C26           -1.4105    -5.7115    -0.0179 C.ar    
  27 C27           -0.6753    -4.5434    -0.0213 C.ar    
  28 H28            1.0042     1.8801     0.0026 H       
  29 H29           -0.5455     1.8639    -0.8728 H       
  30 H30           -0.5286     1.8543     0.9071 H       
  31 H31           -3.2312    -2.3164    -0.0048 H       
  32 H32           -4.5253    -4.4088    -0.0104 H       
  33 H33           -3.0270    -7.7210     0.4917 H       
  34 H34           -4.5373    -6.7791     0.4958 H       
  35 H35           -3.5170    -6.8133    -2.1375 H       
  36 H36           -4.5326    -8.4376    -7.5094 H       
  37 H37           -6.7431   -11.9452    -7.4865 H       
  38 H38           -5.9417   -10.7033    -1.5075 H       
  39 H39           -6.5374   -11.6542    -2.7580 H       
  40 H40           -0.9057    -6.6662    -0.0209 H       
  41 H41            0.4040    -4.5835    -0.0276 H       
@<TRIPOS>BOND
   1    1    2 1
   2    1   28 1
   3    1   29 1
   4    1   30 1
   5    2    6 1
   6    2    3 2
   7    3    4 1
   8    4    5 2
   9    4    7 1
  10    5    6 1
  11    7   27 ar
  12    7    8 ar
  13    8    9 ar
  14    8   31 1
  15    9   10 ar
  16    9   32 1
  17   10   11 1
  18   10   26 ar
  19   11   12 1
  20   11   33 1
  21   11   34 1
  22   12   13 am
  23   12   35 1
  24   13   14 2
  25   13   15 1
  26   15   24 2
  27   15   16 1
  28   16   17 1
  29   17   23 ar
  30   17   18 ar
  31   18   19 ar
  32   18   36 1
  33   19   20 ar
  34   20   21 ar
  35   20   37 1
  36   21   22 1
  37   21   23 ar
  38   23   24 1
  39   24   25 1
  40   25   38 1
  41   25   39 1
  42   26   27 ar
  43   26   40 1
  44   27   41 1

#	End of record

