#	Name: ASD04230033
#	Creating user name:	WinNT
#	Creation time:	15. 06. 2019 20:48

#	Modifying user name:	WinNT
#	Modification time:	15. 06. 2019 20:48

#	Program:	/corina/corina34_cracker 3.40 0067  02.08.2006

@<TRIPOS>MOLECULE
ASD04230033
  32   33    0    0    0
SMALL
NO_CHARGES


@<TRIPOS>ATOM
   1 N1            -0.0169     1.3927     0.0097 N.pl3   
   2 C2             1.2258    -2.0740    -0.0203 C.ar    
   3 C3             1.2121    -0.6813    -0.0132 C.ar    
   4 C4             0.0021    -0.0041     0.0020 C.ar    
   5 C5            -1.1921    -0.7157     0.0101 C.ar    
   6 C6            -1.1773    -2.0974     0.0030 C.ar    
   7 C7             0.0232    -2.7792    -0.0122 C.ar    
   8 C8             2.5160    -2.8048    -0.0427 C.ar    
   9 C9             2.7565    -3.8320     0.8759 C.ar    
  10 C10            3.9628    -4.5103     0.8499 C.ar    
  11 C11            4.9298    -4.1707    -0.0850 C.ar    
  12 C12            4.6918    -3.1507    -0.9969 C.ar    
  13 C13            3.4899    -2.4740    -0.9824 C.ar    
  14 O14            6.1133    -4.8376    -0.1083 O.3     
  15 C15            7.0643    -4.4370    -1.0967 C.3     
  16 O16            1.8088    -4.1626     1.7912 O.3     
  17 C17            2.1238    -5.2215     2.6976 C.3     
  18 H18            0.8165     1.8891     0.0044 H       
  19 H19           -0.8634     1.8662     0.0163 H       
  20 H20            2.1410    -0.1304    -0.0191 H       
  21 H21           -2.1339    -0.1873     0.0222 H       
  22 H22           -2.1078    -2.6457     0.0096 H       
  23 H23            0.0307    -3.8591    -0.0177 H       
  24 H24            4.1514    -5.3038     1.5578 H       
  25 H25            5.4480    -2.8896    -1.7223 H       
  26 H26            3.3059    -1.6845    -1.6959 H       
  27 H27            7.9623    -5.0480    -1.0056 H       
  28 H28            6.6341    -4.5691    -2.0895 H       
  29 H29            7.3220    -3.3882    -0.9491 H       
  30 H30            2.3194    -6.1348     2.1356 H       
  31 H31            3.0085    -4.9541     3.2755 H       
  32 H32            1.2839    -5.3835     3.3732 H       
@<TRIPOS>BOND
   1    1    4 1
   2    1   18 1
   3    1   19 1
   4    2    3 ar
   5    2    7 ar
   6    2    8 1
   7    3    4 ar
   8    3   20 1
   9    4    5 ar
  10    5    6 ar
  11    5   21 1
  12    6    7 ar
  13    6   22 1
  14    7   23 1
  15    8    9 ar
  16    8   13 ar
  17    9   10 ar
  18    9   16 1
  19   10   11 ar
  20   10   24 1
  21   11   12 ar
  22   11   14 1
  23   12   13 ar
  24   12   25 1
  25   13   26 1
  26   14   15 1
  27   15   27 1
  28   15   28 1
  29   15   29 1
  30   16   17 1
  31   17   30 1
  32   17   31 1
  33   17   32 1

#	End of record

