#	Name: ASD02560487
#	Creating user name:	WinNT
#	Creation time:	15. 06. 2019 20:25

#	Modifying user name:	WinNT
#	Modification time:	15. 06. 2019 20:25

#	Program:	/corina/corina34_cracker 3.40 0067  02.08.2006

@<TRIPOS>MOLECULE
ASD02560487
  40   43    0    0    0
SMALL
NO_CHARGES


@<TRIPOS>ATOM
   1 C1            -0.0037     1.4178     0.0741 C.2     
   2 C2             0.0094     0.0134     0.0009 C.2     
   3 C3             1.1789    -0.6566    -0.0217 C.2     
   4 N4             2.3694     0.0178     0.0267 N.pl3   
   5 C5             2.3880     1.3920     0.0987 C.2     
   6 C6             1.1693     2.1030     0.1224 C.2     
   7 C7             3.6692    -0.4068     0.0188 C.2     
   8 C8             4.4583     0.7221     0.0865 C.2     
   9 N9             3.6476     1.7950     0.1336 N.2     
  10 C10            5.9397     0.7489     0.1050 C.ar    
  11 N11            4.1121    -1.7287    -0.0449 N.3     
  12 C12            2.9887    -2.6669     0.0803 C.3     
  13 C13            2.3644    -2.9535    -1.3079 C.3     
  14 C14            6.6181     1.9674     0.1760 C.ar    
  15 C15            3.4872    -4.0448     0.5627 C.3     
  16 C16            2.6550    -5.1002    -0.1864 C.3     
  17 C17            1.6798    -4.3269    -1.0979 C.3     
  18 C18            6.6620    -0.4426     0.0573 C.ar    
  19 C19            8.0418    -0.4123     0.0753 C.ar    
  20 C20            8.7102     0.7968     0.1408 C.ar    
  21 C21            8.0006     1.9846     0.1933 C.ar    
  22 F22            5.9255     3.1263     0.2272 F       
  23 Cl23           8.8479     3.4976     0.2755 Cl      
  24 H24           -0.9430     1.9507     0.0875 H       
  25 H25           -0.9224    -0.5312    -0.0371 H       
  26 H26            1.1767    -1.7351    -0.0780 H       
  27 H27            1.1686     3.1816     0.1784 H       
  28 H28            4.6299    -1.8959    -0.8946 H       
  29 H29            2.2376    -2.2720     0.7644 H       
  30 H30            1.6295    -2.1909    -1.5658 H       
  31 H31            3.1379    -3.0204    -2.0729 H       
  32 H32            4.5440    -4.1641     0.3238 H       
  33 H33            3.3336    -4.1421     1.6374 H       
  34 H34            3.3079    -5.7318    -0.7889 H       
  35 H35            2.0976    -5.7098     0.5248 H       
  36 H36            0.7156    -4.2012    -0.6053 H       
  37 H37            1.5582    -4.8422    -2.0506 H       
  38 H38            6.1425    -1.3881     0.0068 H       
  39 H39            8.6012    -1.3354     0.0383 H       
  40 H40            9.7899     0.8143     0.1553 H       
@<TRIPOS>BOND
   1    1    2 1
   2    1    6 2
   3    1   24 1
   4    2    3 2
   5    2   25 1
   6    3    4 1
   7    3   26 1
   8    4    5 1
   9    4    7 1
  10    5    6 1
  11    5    9 2
  12    6   27 1
  13    7    8 2
  14    7   11 1
  15    8    9 1
  16    8   10 1
  17   10   14 ar
  18   10   18 ar
  19   11   12 1
  20   11   28 1
  21   12   15 1
  22   12   13 1
  23   12   29 1
  24   13   17 1
  25   13   30 1
  26   13   31 1
  27   14   22 1
  28   14   21 ar
  29   15   16 1
  30   15   32 1
  31   15   33 1
  32   16   17 1
  33   16   34 1
  34   16   35 1
  35   17   36 1
  36   17   37 1
  37   18   19 ar
  38   18   38 1
  39   19   20 ar
  40   19   39 1
  41   20   21 ar
  42   20   40 1
  43   21   23 1

#	End of record

