#	Name: ASD04590280
#	Creating user name:	WinNT
#	Creation time:	15. 06. 2019 20:50

#	Modifying user name:	WinNT
#	Modification time:	15. 06. 2019 20:50

#	Program:	/corina/corina34_cracker 3.40 0067  02.08.2006

@<TRIPOS>MOLECULE
ASD04590280
  45   48    0    0    0
SMALL
NO_CHARGES


@<TRIPOS>ATOM
   1 C1            -0.0167     1.3832     0.0096 C.ar    
   2 C2             0.0021    -0.0041     0.0020 C.ar    
   3 C3             1.1969    -0.6870    -0.0126 C.ar    
   4 C4             2.4020     0.0223    -0.0203 C.ar    
   5 C5             2.3769     1.4283    -0.0129 C.ar    
   6 C6             1.1624     2.0986     0.0022 C.ar    
   7 N7             3.7040    -0.3552    -0.0343 N.2     
   8 C8             4.4709     0.7083    -0.0361 C.2     
   9 N9             3.6969     1.8375    -0.0232 N.pl3   
  10 C10            5.9482     0.6906    -0.0500 C.2     
  11 C11            6.7657    -0.4631    -0.0639 C.2     
  12 C12            8.0579    -0.0540    -0.0737 C.2     
  13 N13            8.0646     1.3050    -0.0664 N.pl3   
  14 N14            6.7361     1.7480    -0.0573 N.2     
  15 N15            6.3188    -1.7944    -0.0671 N.am    
  16 C16            7.2108    -2.8046    -0.0809 C.2     
  17 C17            6.7414    -4.2032    -0.0842 C.ar    
  18 O18            8.4027    -2.5633    -0.0907 O.2     
  19 C19            6.0605    -6.1719    -1.2888 C.ar    
  20 C20            5.8580    -6.8319    -0.0904 C.ar    
  21 C21            6.0884    -6.1869     1.1112 C.ar    
  22 C22            6.5288    -4.8768     1.1235 C.ar    
  23 F23            6.7537    -4.2487     2.2983 F       
  24 C24            6.5007    -4.8617    -1.2949 C.ar    
  25 F25            6.6975    -4.2186    -2.4667 F       
  26 C26            1.2064    -2.1939    -0.0198 C.3     
  27 O27           -0.1594    -2.6866    -0.0091 O.3     
  28 C28           -0.3269    -4.0184    -0.0138 C.2     
  29 C29           -1.7157    -4.6032    -0.0033 C.3     
  30 O30            0.6359    -4.7483    -0.0264 O.2     
  31 H31           -0.9614     1.9066     0.0169 H       
  32 H32           -0.9283    -0.5525     0.0079 H       
  33 H33            1.1403     3.1784     0.0075 H       
  34 H34            4.0156     2.7537    -0.0215 H       
  35 H35            8.9276    -0.6942    -0.0850 H       
  36 H36            8.8529     1.8702    -0.0703 H       
  37 H37            5.3681    -1.9869    -0.0593 H       
  38 H38            5.8782    -6.6830    -2.2225 H       
  39 H39            5.5136    -7.8555    -0.0928 H       
  40 H40            5.9274    -6.7096     2.0425 H       
  41 H41            1.7140    -2.5498    -0.9163 H       
  42 H42            1.7310    -2.5581     0.8635 H       
  43 H43           -2.0603    -4.7394    -1.0284 H       
  44 H44           -1.7003    -5.5669     0.5059 H       
  45 H45           -2.3910    -3.9264     0.5202 H       
@<TRIPOS>BOND
   1    1    2 ar
   2    1    6 ar
   3    1   31 1
   4    2    3 ar
   5    2   32 1
   6    3    4 ar
   7    3   26 1
   8    4    5 ar
   9    4    7 1
  10    5    6 ar
  11    5    9 1
  12    6   33 1
  13    7    8 2
  14    8    9 1
  15    8   10 1
  16    9   34 1
  17   10   11 1
  18   10   14 2
  19   11   12 2
  20   11   15 1
  21   12   13 1
  22   12   35 1
  23   13   14 1
  24   13   36 1
  25   15   16 am
  26   15   37 1
  27   16   17 1
  28   16   18 2
  29   17   22 ar
  30   17   24 ar
  31   19   20 ar
  32   19   24 ar
  33   19   38 1
  34   20   21 ar
  35   20   39 1
  36   21   22 ar
  37   21   40 1
  38   22   23 1
  39   24   25 1
  40   26   27 1
  41   26   41 1
  42   26   42 1
  43   27   28 1
  44   28   29 1
  45   28   30 2
  46   29   43 1
  47   29   44 1
  48   29   45 1

#	End of record

