#	Name: ASD07930545
#	Creating user name:	WinNT
#	Creation time:	15. 06. 2019 21:12

#	Modifying user name:	WinNT
#	Modification time:	15. 06. 2019 21:12

#	Program:	/corina/corina34_cracker 3.40 0067  02.08.2006

@<TRIPOS>MOLECULE
ASD07930545
  56   59    0    0    0
SMALL
NO_CHARGES


@<TRIPOS>ATOM
   1 C1            -0.0342     1.4581     0.0423 C.3     
   2 N2             0.7953    -0.4134    -2.1303 N.2     
   3 N3            -0.8903    -1.7835    -1.2685 N.pl3   
   4 C4            -0.9149    -2.8271    -0.2383 C.3     
   5 C5            -1.2299    -2.1885     1.1215 C.3     
   6 S6             0.0062    -0.8913     1.4433 S.o2    
   7 N7            -0.0140    -0.0067     0.0314 N.am    
   8 C8            -0.0112    -0.7260    -1.1553 C.2     
   9 C9             0.4501    -3.5154    -0.1756 C.3     
  10 C10           -1.9764    -3.8423    -0.5755 C.ar    
  11 C11           -2.8069    -3.6377    -1.6601 C.ar    
  12 C12           -3.7854    -4.5729    -1.9715 C.ar    
  13 C13           -3.9275    -5.7127    -1.1915 C.ar    
  14 C14           -3.0942    -5.9144    -0.1061 C.ar    
  15 C15           -2.1144    -4.9815     0.1987 C.ar    
  16 O16           -0.4575     0.0117     2.4377 O.2     
  17 O17            1.3141    -1.4441     1.5002 O.2     
  18 F18           -1.3007    -5.1795     1.2588 F       
  19 N19           -4.6275    -4.3663    -3.0698 N.am    
  20 C20           -5.0478    -5.4159    -3.8036 C.2     
  21 O21           -4.6193    -6.5297    -3.5722 O.2     
  22 C22           -6.0302    -5.2124    -4.8901 C.ar    
  23 N23           -6.4939    -3.9926    -5.1370 N.ar    
  24 C24           -7.3669    -3.7663    -6.0924 C.ar    
  25 C25           -7.8410    -4.8072    -6.8863 C.ar    
  26 C26           -7.3790    -6.1008    -6.6589 C.ar    
  27 C27           -6.4559    -6.3027    -5.6488 C.ar    
  28 F28           -3.2311    -7.0230     0.6538 F       
  29 O29           -8.7435    -4.5637    -7.8704 O.3     
  30 C30           -9.1686    -3.2100    -8.0403 C.3     
  31 C31          -10.1782    -3.1327    -9.1873 C.3     
  32 C32          -10.8439    -1.7809    -9.4526 C.3     
  33 C33           -9.7858    -2.3155   -10.4199 C.3     
  34 H34            0.9884     1.8356     0.0392 H       
  35 H35           -0.5581     1.8208    -0.8420 H       
  36 H36           -0.5478     1.8077     0.9379 H       
  37 H37            1.4071     0.3330    -2.0333 H       
  38 H38           -1.4883    -1.8387    -2.0303 H       
  39 H39           -2.2269    -1.7484     1.0986 H       
  40 H40           -1.1799    -2.9460     1.9036 H       
  41 H41            1.2166    -2.7805     0.0704 H       
  42 H42            0.4311    -4.2908     0.5902 H       
  43 H43            0.6749    -3.9652    -1.1426 H       
  44 H44           -2.6955    -2.7505    -2.2658 H       
  45 H45           -4.6880    -6.4409    -1.4319 H       
  46 H46           -4.9088    -3.4678    -3.3031 H       
  47 H47           -7.7213    -2.7607    -6.2638 H       
  48 H48           -7.7304    -6.9267    -7.2596 H       
  49 H49           -6.0761    -7.2929    -5.4447 H       
  50 H50           -9.6358    -2.8578    -7.1207 H       
  51 H51           -8.3064    -2.5848    -8.2724 H       
  52 H52          -10.7776    -4.0289    -9.3472 H       
  53 H53          -11.8812    -1.7878    -9.7874 H       
  54 H54          -10.5626    -0.9466    -8.8100 H       
  55 H55           -8.8085    -1.8330   -10.4136 H       
  56 H56          -10.1271    -2.6741   -11.3910 H       
@<TRIPOS>BOND
   1    1    7 1
   2    1   34 1
   3    1   35 1
   4    1   36 1
   5    2    8 2
   6    2   37 1
   7    3    4 1
   8    3    8 1
   9    3   38 1
  10    4    5 1
  11    4    9 1
  12    4   10 1
  13    5    6 1
  14    5   39 1
  15    5   40 1
  16    6    7 am
  17    6   16 2
  18    6   17 2
  19    7    8 1
  20    9   41 1
  21    9   42 1
  22    9   43 1
  23   10   11 ar
  24   10   15 ar
  25   11   12 ar
  26   11   44 1
  27   12   13 ar
  28   12   19 1
  29   13   14 ar
  30   13   45 1
  31   14   15 ar
  32   14   28 1
  33   15   18 1
  34   19   20 am
  35   19   46 1
  36   20   21 2
  37   20   22 1
  38   22   23 ar
  39   22   27 ar
  40   23   24 ar
  41   24   25 ar
  42   24   47 1
  43   25   26 ar
  44   25   29 1
  45   26   27 ar
  46   26   48 1
  47   27   49 1
  48   29   30 1
  49   30   31 1
  50   30   50 1
  51   30   51 1
  52   31   32 1
  53   31   33 1
  54   31   52 1
  55   32   33 1
  56   32   53 1
  57   32   54 1
  58   33   55 1
  59   33   56 1

#	End of record

