#	Name: ASD01882509
#	Creating user name:	WinNT
#	Creation time:	15. 06. 2019 19:44

#	Modifying user name:	WinNT
#	Modification time:	15. 06. 2019 19:44

#	Program:	/corina/corina34_cracker 3.40 0067  02.08.2006

@<TRIPOS>MOLECULE
ASD01882509
  56   60    0    0    0
SMALL
NO_CHARGES


@<TRIPOS>ATOM
   1 C1            -0.0170     1.4050     0.0098 C.2     
   2 C2             0.0021    -0.0041     0.0020 C.2     
   3 C3             1.1991    -0.6521    -0.0129 C.2     
   4 C4             2.3930     0.0893    -0.0203 C.2     
   5 C5             2.3588     1.4383    -0.0123 C.2     
   6 N6             1.1665     2.1012     0.0022 N.pl3   
   7 N7            -0.4824     3.4846     0.0225 N.2     
   8 N8            -0.9895     2.3019     0.0186 N.2     
   9 C9             0.8240     3.4179     0.0121 C.2     
  10 C10            1.2438    -2.1584    -0.0209 C.3     
  11 N11            1.3656    -2.6373    -1.4043 N.3     
  12 C12            1.6494    -4.0776    -1.4395 C.3     
  13 C13            1.9131    -4.5118    -2.8831 C.3     
  14 C14            0.6841    -4.1937    -3.7392 C.3     
  15 C15            0.3812    -2.6956    -3.6467 C.3     
  16 C16            0.1619    -2.3141    -2.1809 C.3     
  17 O17            0.9459    -4.5448    -5.0995 O.3     
  18 C18           -0.2160    -4.9400    -5.8316 C.3     
  19 C19            0.1747    -5.2861    -7.2453 C.ar    
  20 C20           -0.7902    -5.6996    -8.1487 C.ar    
  21 C21           -0.4311    -6.0170    -9.4470 C.ar    
  22 C22            0.8925    -5.9207    -9.8412 C.ar    
  23 C23            1.8554    -5.5072    -8.9364 C.ar    
  24 C24            1.4948    -5.1854    -7.6414 C.ar    
  25 F25            1.2445    -6.2307   -11.1082 F       
  26 F26           -2.0814    -5.7934    -7.7625 F       
  27 C27            1.7759     4.5862     0.0100 C.3     
  28 C28            2.0856     4.9891    -1.4332 C.3     
  29 C29            2.9459     6.2357    -1.6495 C.3     
  30 C30            3.5319     4.8469    -1.9116 C.3     
  31 Cl31          -1.4832    -0.9027     0.0120 Cl      
  32 H32            3.3434    -0.4236    -0.0322 H       
  33 H33            3.2826     1.9976    -0.0178 H       
  34 H34            2.1017    -2.4995     0.5585 H       
  35 H35            0.3279    -2.5514     0.4204 H       
  36 H36            2.5280    -4.2897    -0.8302 H       
  37 H37            0.7936    -4.6261    -1.0459 H       
  38 H38            2.7773    -3.9737    -3.2728 H       
  39 H39            2.1084    -5.5838    -2.9108 H       
  40 H40           -0.1714    -4.7616    -3.3736 H       
  41 H41            1.2213    -2.1290    -4.0484 H       
  42 H42           -0.5180    -2.4701    -4.2199 H       
  43 H43           -0.6869    -2.8709    -1.7838 H       
  44 H44           -0.0399    -1.2453    -2.1101 H       
  45 H45           -0.6666    -5.8109    -5.3556 H       
  46 H46           -0.9342    -4.1202    -5.8435 H       
  47 H47           -1.1829    -6.3398   -10.1521 H       
  48 H48            2.8880    -5.4321    -9.2438 H       
  49 H49            2.2460    -4.8590    -6.9374 H       
  50 H50            1.3200     5.4273     0.5322 H       
  51 H51            2.6998     4.3030     0.5143 H       
  52 H52            1.2942     4.7920    -2.1564 H       
  53 H53            2.7208     6.8585    -2.5153 H       
  54 H54            3.2913     6.7687    -0.7637 H       
  55 H55            4.2628     4.4662    -1.1982 H       
  56 H56            3.6923     4.5560    -2.9497 H       
@<TRIPOS>BOND
   1    1    2 1
   2    1    6 1
   3    1    8 2
   4    2    3 2
   5    2   31 1
   6    3    4 1
   7    3   10 1
   8    4    5 2
   9    4   32 1
  10    5    6 1
  11    5   33 1
  12    6    9 1
  13    7    8 1
  14    7    9 2
  15    9   27 1
  16   10   11 1
  17   10   34 1
  18   10   35 1
  19   11   12 1
  20   11   16 1
  21   12   13 1
  22   12   36 1
  23   12   37 1
  24   13   14 1
  25   13   38 1
  26   13   39 1
  27   14   15 1
  28   14   17 1
  29   14   40 1
  30   15   16 1
  31   15   41 1
  32   15   42 1
  33   16   43 1
  34   16   44 1
  35   17   18 1
  36   18   19 1
  37   18   45 1
  38   18   46 1
  39   19   20 ar
  40   19   24 ar
  41   20   21 ar
  42   20   26 1
  43   21   22 ar
  44   21   47 1
  45   22   23 ar
  46   22   25 1
  47   23   24 ar
  48   23   48 1
  49   24   49 1
  50   27   28 1
  51   27   50 1
  52   27   51 1
  53   28   29 1
  54   28   30 1
  55   28   52 1
  56   29   30 1
  57   29   53 1
  58   29   54 1
  59   30   55 1
  60   30   56 1

#	End of record

