#	Name: ASD01912497
#	Creating user name:	WinNT
#	Creation time:	15. 06. 2019 19:59

#	Modifying user name:	WinNT
#	Modification time:	15. 06. 2019 19:59

#	Program:	/corina/corina34_cracker 3.40 0067  02.08.2006

@<TRIPOS>MOLECULE
ASD01912497
  47   50    0    0    0
SMALL
NO_CHARGES


@<TRIPOS>ATOM
   1 C1            -0.0432     1.4491    -0.0193 C.2     
   2 O2            -0.0557     0.1137    -0.0767 O.3     
   3 N3            -1.1990    -0.2913    -0.0798 N.2     
   4 C4            -2.0322     0.7150    -0.0260 C.2     
   5 N5            -1.2911     1.8451     0.0187 N.2     
   6 C6            -3.5141     0.6320    -0.0110 C.ar    
   7 C7            -4.1450    -0.6090    -0.0561 C.ar    
   8 C8            -5.5247    -0.6804    -0.0419 C.ar    
   9 C9            -6.2790     0.4787     0.0170 C.ar    
  10 C10           -5.6565     1.7131     0.0618 C.ar    
  11 C11           -4.2789     1.7950     0.0539 C.ar    
  12 Cl12          -6.3133    -2.2258    -0.0985 Cl      
  13 C13            1.1773     2.3327     0.0040 C.3     
  14 C14            2.1076     2.0732     1.2028 C.3     
  15 N15            3.2187     2.2021     0.2401 N.am    
  16 C16            2.3316     1.8184    -0.8752 C.3     
  17 C17            4.5207     2.5360     0.3396 C.2     
  18 N18            5.3246     2.4423    -0.7381 N.am    
  19 O19            4.9699     2.9218     1.4015 O.2     
  20 C20            6.7095     2.9378    -0.6954 C.3     
  21 C21            7.6355     1.8300    -1.2104 C.3     
  22 O22            7.1632     1.3743    -2.4804 O.3     
  23 C23            5.8605     0.7865    -2.4439 C.3     
  24 C24            4.8454     1.8358    -1.9902 C.3     
  25 C25            5.4879     0.2823    -3.8395 C.3     
  26 C26            9.0555     2.3796    -1.3605 C.3     
  27 H27           -3.5568    -1.5137    -0.1024 H       
  28 H28           -7.3573     0.4191     0.0275 H       
  29 H29           -6.2497     2.6144     0.1077 H       
  30 H30           -3.7943     2.7596     0.0894 H       
  31 H31            0.9424     3.3860    -0.1492 H       
  32 H32            2.0847     2.8614     1.9554 H       
  33 H33            2.0082     1.0745     1.6279 H       
  34 H34            2.2981     0.7448    -1.0605 H       
  35 H35            2.4876     2.4032    -1.7817 H       
  36 H36            6.8037     3.8194    -1.3295 H       
  37 H37            6.9769     3.1925     0.3302 H       
  38 H38            7.6383     1.0001    -0.5038 H       
  39 H39            5.8568    -0.0472    -1.7417 H       
  40 H40            3.8777     1.3625    -1.8238 H       
  41 H41            4.7503     2.6085    -2.7531 H       
  42 H42            6.2139    -0.4640    -4.1620 H       
  43 H43            4.4947    -0.1656    -3.8109 H       
  44 H44            5.4898     1.1174    -4.5400 H       
  45 H45            9.4133     2.7309    -0.3927 H       
  46 H46            9.7133     1.5914    -1.7267 H       
  47 H47            9.0516     3.2079    -2.0690 H       
@<TRIPOS>BOND
   1    1    2 1
   2    1   13 1
   3    1    5 2
   4    2    3 1
   5    3    4 2
   6    4    5 1
   7    4    6 1
   8    6    7 ar
   9    6   11 ar
  10    7    8 ar
  11    7   27 1
  12    8    9 ar
  13    8   12 1
  14    9   10 ar
  15    9   28 1
  16   10   11 ar
  17   10   29 1
  18   11   30 1
  19   13   14 1
  20   13   16 1
  21   13   31 1
  22   14   15 1
  23   14   32 1
  24   14   33 1
  25   15   16 1
  26   15   17 am
  27   16   34 1
  28   16   35 1
  29   17   18 am
  30   17   19 2
  31   18   20 1
  32   18   24 1
  33   20   21 1
  34   20   36 1
  35   20   37 1
  36   21   22 1
  37   21   26 1
  38   21   38 1
  39   22   23 1
  40   23   24 1
  41   23   25 1
  42   23   39 1
  43   24   40 1
  44   24   41 1
  45   25   42 1
  46   25   43 1
  47   25   44 1
  48   26   45 1
  49   26   46 1
  50   26   47 1

#	End of record

