#	Name: ASD03740260
#	Creating user name:	WinNT
#	Creation time:	15. 06. 2019 20:47

#	Modifying user name:	WinNT
#	Modification time:	15. 06. 2019 20:47

#	Program:	/corina/corina34_cracker 3.40 0067  02.08.2006

@<TRIPOS>MOLECULE
ASD03740260
  63   66    0    0    0
SMALL
NO_CHARGES


@<TRIPOS>ATOM
   1 C1             0.3447     1.3207    -0.2182 C.2     
   2 C2             4.4781    -5.0910     5.2243 C.ar    
   3 C3             4.8694    -4.7492     6.5035 C.ar    
   4 C4             0.1775    -0.0422    -0.1115 C.2     
   5 C5             3.6062    -2.7104     6.3546 C.ar    
   6 C6             1.6134     1.7337    -0.3061 C.2     
   7 C7             3.6468    -4.2433     4.5028 C.ar    
   8 C8             4.4356    -3.5610     7.0736 C.ar    
   9 C9             3.2180    -3.0525     5.0791 C.ar    
  10 C10            1.3401    -0.7542    -0.1128 C.2     
  11 C11            1.4412    -2.2137    -0.0118 C.2     
  12 C12            2.7827    -4.1117     0.8597 C.3     
  13 C13            2.7991    -2.8644    -0.0264 C.3     
  14 C14            2.7457    -3.6996     2.3088 C.2     
  15 C15            1.5599    -4.9319     0.5377 C.2     
  16 C16            4.2652    -2.1577    10.4055 C.2     
  17 C17            5.0489    -0.8274     8.4650 C.3     
  18 C18           -3.5072    -6.3648     2.4300 C.3     
  19 C19           -3.7764    -5.3190     0.1769 C.3     
  20 C20           -1.5557    -5.2679     1.3206 C.3     
  21 C21           -0.8055    -5.1024    -0.0026 C.3     
  22 C22            4.2439    -2.0529     8.9023 C.3     
  23 C23           -2.8227    -6.0936     1.0888 C.3     
  24 N24            3.2375    -4.5810     3.2133 N.pl3   
  25 N25            0.3611    -2.9208     0.0938 N.2     
  26 N26            2.2517    -2.5457     2.5752 N.am    
  27 N27            0.4077    -4.3119     0.2194 N.am    
  28 N28            3.6783    -1.2043    11.1558 N.am    
  29 O29            1.6125    -6.1436     0.5697 O.2     
  30 O30            4.8105    -3.1000    10.9400 O.2     
  31 O31            0.8417    -2.2331     4.5823 O.2     
  32 O32            2.7763    -0.7077     4.1454 O.2     
  33 O33            3.1337    -3.2364    -1.3649 O.3     
  34 O34            4.8221    -3.2299     8.3345 O.3     
  35 S35            2.6999     0.3524    -0.2552 S.3     
  36 S36            2.1693    -1.9925     4.1363 S.o2    
  37 H37           -0.4895     2.0065    -0.2343 H       
  38 H38            4.8218    -6.0149     4.7831 H       
  39 H39            5.5155    -5.4096     7.0627 H       
  40 H40           -0.7936    -0.5081    -0.0328 H       
  41 H41            3.2662    -1.7847     6.7949 H       
  42 H42            1.9248     2.7639    -0.3957 H       
  43 H43            3.6785    -4.7036     0.6721 H       
  44 H44            3.5421    -2.1615     0.3505 H       
  45 H45            5.0335    -0.7516     7.3778 H       
  46 H46            4.6078     0.0704     8.8981 H       
  47 H47            6.0787    -0.9279     8.8077 H       
  48 H48           -4.4099    -6.9531     2.2648 H       
  49 H49           -2.8278    -6.9166     3.0796 H       
  50 H50           -3.7716    -5.4181     2.9010 H       
  51 H51           -3.2888    -5.1258    -0.7786 H       
  52 H52           -4.6791    -5.9072     0.0117 H       
  53 H53           -4.0408    -4.3723     0.6480 H       
  54 H54           -0.9155    -5.7789     2.0398 H       
  55 H55           -1.8276    -4.2865     1.7093 H       
  56 H56           -0.5336    -6.0838    -0.3913 H       
  57 H57           -1.4457    -4.5914    -0.7217 H       
  58 H58            3.2141    -1.9524     8.5596 H       
  59 H59           -2.5583    -7.0403     0.6177 H       
  60 H60            3.3100    -5.5104     2.9452 H       
  61 H61            3.2422    -0.4507    10.7283 H       
  62 H62            3.6919    -1.2718    12.1234 H       
  63 H63            3.1663    -2.4935    -1.9831 H       
@<TRIPOS>BOND
   1    1    4 1
   2    1    6 2
   3    1   37 1
   4    2    3 ar
   5    2    7 ar
   6    2   38 1
   7    3    8 ar
   8    3   39 1
   9    4   10 2
  10    4   40 1
  11    5    8 ar
  12    5    9 ar
  13    5   41 1
  14    6   35 1
  15    6   42 1
  16    7    9 ar
  17    7   24 1
  18    8   34 1
  19    9   36 1
  20   10   11 1
  21   10   35 1
  22   11   13 1
  23   11   25 2
  24   12   13 1
  25   12   14 1
  26   12   15 1
  27   12   43 1
  28   13   33 1
  29   13   44 1
  30   14   24 1
  31   14   26 2
  32   15   27 am
  33   15   29 2
  34   16   22 1
  35   16   28 am
  36   16   30 2
  37   17   22 1
  38   17   45 1
  39   17   46 1
  40   17   47 1
  41   18   23 1
  42   18   48 1
  43   18   49 1
  44   18   50 1
  45   19   23 1
  46   19   51 1
  47   19   52 1
  48   19   53 1
  49   20   21 1
  50   20   23 1
  51   20   54 1
  52   20   55 1
  53   21   27 1
  54   21   56 1
  55   21   57 1
  56   22   34 1
  57   22   58 1
  58   23   59 1
  59   24   60 1
  60   25   27 1
  61   26   36 am
  62   28   61 1
  63   28   62 1
  64   31   36 2
  65   32   36 2
  66   33   63 1

#	End of record

