#	Name: ASD01814237
#	Creating user name:	WinNT
#	Creation time:	15. 06. 2019 19:31

#	Modifying user name:	WinNT
#	Modification time:	15. 06. 2019 19:31

#	Program:	/corina/corina34_cracker 3.40 0067  02.08.2006

@<TRIPOS>MOLECULE
ASD01814237
  61   65    0    0    0
SMALL
NO_CHARGES


@<TRIPOS>ATOM
   1 N1             0.0674     2.4843    -4.1308 N.2     
   2 C2             0.0292     1.4783    -4.9724 C.2     
   3 C3             1.1573     1.1576    -5.7430 C.2     
   4 C4             2.2869     1.8961    -5.6104 C.2     
   5 N5             2.2995     2.9378    -4.7271 N.pl3   
   6 C6             1.1778     3.2208    -3.9915 C.2     
   7 N7             3.2852     3.8637    -4.3701 N.2     
   8 C8             2.7946     4.6786    -3.4580 C.2     
   9 C9             1.4849     4.3157    -3.1924 C.2     
  10 C10            3.1506     5.8676    -2.5997 C.3     
  11 N11            1.9733     6.2049    -1.7937 N.am    
  12 C12            0.9219     5.2466    -2.1495 C.3     
  13 C13            1.8758     7.2056    -0.8962 C.2     
  14 O14            0.8100     7.4391    -0.3592 O.2     
  15 C15            3.0613     8.0171    -0.5654 C.ar    
  16 C16            2.9492     9.4093    -0.4380 C.ar    
  17 C17            4.3012     7.4024    -0.3715 C.ar    
  18 C18            5.4053     8.1650    -0.0622 C.ar    
  19 C19            5.2925     9.5432     0.0580 C.ar    
  20 C20            4.0690    10.1631    -0.1264 C.ar    
  21 O21            1.7492    10.0154    -0.6196 O.3     
  22 C22            1.7152    11.4383    -0.4924 C.3     
  23 C23            3.5117     1.5716    -6.4262 C.3     
  24 Cl24           1.1073    -0.1736    -6.8562 Cl      
  25 C25           -1.2311     0.6638    -5.1116 C.3     
  26 F26            6.3814    10.2827     0.3622 F       
  27 C27            0.5129    11.9923    -1.2619 C.3     
  28 C28            0.4468    13.5093    -1.0718 C.3     
  29 N29            0.3208    13.8198     0.3580 N.3     
  30 C30            1.4867    13.3390     1.1104 C.3     
  31 C31            1.5838    11.8169     0.9855 C.3     
  32 C32            0.1156    15.2591     0.5681 C.3     
  33 C33           -1.3246    15.6271     0.2060 C.3     
  34 O34           -2.2226    14.9880     1.1155 O.3     
  35 H35            3.9855     5.6147    -1.9463 H       
  36 H36            3.4192     6.7131    -3.2331 H       
  37 H37            0.0597     5.7767    -2.5542 H       
  38 H38            0.6267     4.6781    -1.2675 H       
  39 H39            4.3933     6.3303    -0.4637 H       
  40 H40            6.3630     7.6887     0.0878 H       
  41 H41            3.9872    11.2354    -0.0278 H       
  42 H42            2.6339    11.8623    -0.8977 H       
  43 H43            3.3050     0.7140    -7.0665 H       
  44 H44            3.7754     2.4306    -7.0432 H       
  45 H45            4.3406     1.3354    -5.7589 H       
  46 H46           -1.9939     1.0571    -4.4396 H       
  47 H47           -1.5885     0.7204    -6.1398 H       
  48 H48           -1.0223    -0.3750    -4.8561 H       
  49 H49            0.6221    11.7627    -2.3218 H       
  50 H50           -0.4025    11.5378    -0.8829 H       
  51 H51            1.3565    13.9644    -1.4635 H       
  52 H52           -0.4165    13.9051    -1.6068 H       
  53 H53            2.3915    13.7949     0.7085 H       
  54 H54            1.3786    13.6111     2.1604 H       
  55 H55            0.6853    11.3596     1.3998 H       
  56 H56            2.4581    11.4620     1.5311 H       
  57 H57            0.3012    15.5037     1.6140 H       
  58 H58            0.8039    15.8203    -0.0639 H       
  59 H59           -1.4506    16.7079     0.2703 H       
  60 H60           -1.5398    15.2961    -0.8100 H       
  61 H61           -3.1555    15.1771     0.9453 H       
@<TRIPOS>BOND
   1    1    2 2
   2    1    6 1
   3    2    3 1
   4    2   25 1
   5    3    4 2
   6    3   24 1
   7    4    5 1
   8    4   23 1
   9    5    7 1
  10    5    6 1
  11    6    9 2
  12    7    8 2
  13    8   10 1
  14    8    9 1
  15    9   12 1
  16   10   11 1
  17   10   35 1
  18   10   36 1
  19   11   12 1
  20   11   13 am
  21   12   37 1
  22   12   38 1
  23   13   14 2
  24   13   15 1
  25   15   17 ar
  26   15   16 ar
  27   16   20 ar
  28   16   21 1
  29   17   18 ar
  30   17   39 1
  31   18   19 ar
  32   18   40 1
  33   19   20 ar
  34   19   26 1
  35   20   41 1
  36   21   22 1
  37   22   27 1
  38   22   31 1
  39   22   42 1
  40   23   43 1
  41   23   44 1
  42   23   45 1
  43   25   46 1
  44   25   47 1
  45   25   48 1
  46   27   28 1
  47   27   49 1
  48   27   50 1
  49   28   29 1
  50   28   51 1
  51   28   52 1
  52   29   30 1
  53   29   32 1
  54   30   31 1
  55   30   53 1
  56   30   54 1
  57   31   55 1
  58   31   56 1
  59   32   33 1
  60   32   57 1
  61   32   58 1
  62   33   34 1
  63   33   59 1
  64   33   60 1
  65   34   61 1

#	End of record

