#	Name: ASD05490256
#	Creating user name:	WinNT
#	Creation time:	15. 06. 2019 21:01

#	Modifying user name:	WinNT
#	Modification time:	15. 06. 2019 21:01

#	Program:	/corina/corina34_cracker 3.40 0067  02.08.2006

@<TRIPOS>MOLECULE
ASD05490256
  64   67    0    0    0
SMALL
NO_CHARGES


@<TRIPOS>ATOM
   1 N1            -0.0140     1.3235    -0.0017 N.ar    
   2 C2             0.0026    -0.0005    -0.0085 C.ar    
   3 C3             1.1990    -0.7004    -0.0178 C.ar    
   4 C4             2.3953     0.0106    -0.0206 C.ar    
   5 C5             2.3404     1.4047    -0.0168 C.ar    
   6 C6             1.1047     2.0380    -0.0056 C.ar    
   7 N7             3.6186    -0.6479    -0.0229 N.3     
   8 C8             3.4706    -2.0318    -0.4926 C.3     
   9 C9             4.7908    -2.7480    -0.3696 C.ar    
  10 C10            5.1071    -3.4220     0.7949 C.ar    
  11 C11            6.3191    -4.0747     0.9031 C.ar    
  12 C12            7.2207    -4.0569    -0.1499 C.ar    
  13 C13            6.9040    -3.3882    -1.3133 C.ar    
  14 C14            5.6844    -2.7368    -1.4220 C.ar    
  15 N15            1.0388     3.4288     0.0012 N.pl3   
  16 O16           -1.1706    -0.6833    -0.0060 O.3     
  17 C17           -2.3717     0.0908     0.0042 C.3     
  18 N18            3.5364     2.1439    -0.0281 N.am    
  19 C19            4.6273     0.0692    -0.8098 C.3     
  20 C20            4.6763     1.5173    -0.3970 C.2     
  21 O21            5.7309     2.1170    -0.3961 O.2     
  22 C22           -3.5818    -0.8454     0.0056 C.3     
  23 C23           -4.8678    -0.0166     0.0165 C.3     
  24 C24           -6.0780    -0.9528     0.0180 C.3     
  25 C25            9.1881    -4.9937    -1.3476 C.3     
  26 N26            9.2027    -3.7126    -2.0715 N.3     
  27 C27            7.8446    -3.3499    -2.4890 C.3     
  28 C28           10.1104    -3.7701    -3.2251 C.3     
  29 C29           10.0052    -2.4683    -4.0221 C.3     
  30 C30            8.5362    -4.7731     0.0176 C.3     
  31 C31           11.5479    -3.9529    -2.7342 C.3     
  32 H32            1.2028    -1.7804    -0.0224 H       
  33 H33            2.7222    -2.5430     0.1130 H       
  34 H34            3.1542    -2.0297    -1.5357 H       
  35 H35            4.4083    -3.4378     1.6181 H       
  36 H36            6.5661    -4.6016     1.8129 H       
  37 H37            5.4362    -2.2100    -2.3316 H       
  38 H38            1.8549     3.9530    -0.0019 H       
  39 H39            0.1767     3.8735     0.0091 H       
  40 H40           -2.3941     0.7150     0.8975 H       
  41 H41           -2.4033     0.7240    -0.8825 H       
  42 H42            3.5435     3.0810     0.2224 H       
  43 H43            5.6040    -0.3863    -0.6458 H       
  44 H44            4.3737     0.0035    -1.8678 H       
  45 H45           -3.5594    -1.4696    -0.8877 H       
  46 H46           -3.5502    -1.4787     0.8923 H       
  47 H47           -4.8903     0.6076     0.9098 H       
  48 H48           -4.8995     0.6167    -0.8701 H       
  49 H49           -6.0463    -1.5861     0.9046 H       
  50 H50           -6.9941    -0.3623     0.0257 H       
  51 H51           -6.0555    -1.5770    -0.8753 H       
  52 H52            8.6138    -5.7274    -1.9133 H       
  53 H53           10.2095    -5.3494    -1.2124 H       
  54 H54            7.5013    -4.0526    -3.2482 H       
  55 H55            7.8537    -2.3447    -2.9105 H       
  56 H56            9.8347    -4.6099    -3.8629 H       
  57 H57           10.2810    -1.6285    -3.3843 H       
  58 H58           10.6788    -2.5110    -4.8780 H       
  59 H59            8.9811    -2.3381    -4.3718 H       
  60 H60            9.1980    -4.1730     0.6420 H       
  61 H61            8.3648    -5.7371     0.4968 H       
  62 H62           11.8236    -3.1131    -2.0964 H       
  63 H63           11.6228    -4.8803    -2.1664 H       
  64 H64           12.2215    -3.9955    -3.5902 H       
@<TRIPOS>BOND
   1    1    2 ar
   2    1    6 ar
   3    2    3 ar
   4    2   16 1
   5    3    4 ar
   6    3   32 1
   7    4    5 ar
   8    4    7 1
   9    5    6 ar
  10    5   18 1
  11    6   15 1
  12    7    8 1
  13    7   19 1
  14    8    9 1
  15    8   33 1
  16    8   34 1
  17    9   10 ar
  18    9   14 ar
  19   10   11 ar
  20   10   35 1
  21   11   12 ar
  22   11   36 1
  23   12   13 ar
  24   12   30 1
  25   13   14 ar
  26   13   27 1
  27   14   37 1
  28   15   38 1
  29   15   39 1
  30   16   17 1
  31   17   22 1
  32   17   40 1
  33   17   41 1
  34   18   20 am
  35   18   42 1
  36   19   20 1
  37   19   43 1
  38   19   44 1
  39   20   21 2
  40   22   23 1
  41   22   45 1
  42   22   46 1
  43   23   24 1
  44   23   47 1
  45   23   48 1
  46   24   49 1
  47   24   50 1
  48   24   51 1
  49   25   26 1
  50   25   30 1
  51   25   52 1
  52   25   53 1
  53   26   27 1
  54   26   28 1
  55   27   54 1
  56   27   55 1
  57   28   29 1
  58   28   31 1
  59   28   56 1
  60   29   57 1
  61   29   58 1
  62   29   59 1
  63   30   60 1
  64   30   61 1
  65   31   62 1
  66   31   63 1
  67   31   64 1

#	End of record

