#	Name: ASD01670016
#	Creating user name:	WinNT
#	Creation time:	15. 06. 2019 19:22

#	Modifying user name:	WinNT
#	Modification time:	15. 06. 2019 19:22

#	Program:	/corina/corina34_cracker 3.40 0067  02.08.2006

@<TRIPOS>MOLECULE
ASD01670016
  52   54    0    0    0
SMALL
NO_CHARGES


@<TRIPOS>ATOM
   1 C1             0.2420     1.6577     0.3717 C.ar    
   2 C2             0.1273     0.2797     0.3237 C.ar    
   3 C3             5.4731    -7.2404    -1.5279 C.ar    
   4 C4             6.7539    -7.7344    -1.7109 C.ar    
   5 C5             1.4982     2.2349     0.3177 C.ar    
   6 C6             2.5276     0.1783     0.1723 C.ar    
   7 C7             1.2987    -0.4805     0.2213 C.ar    
   8 C8             5.9830    -6.7570     0.7709 C.ar    
   9 C9             5.0832    -6.7537    -0.2994 C.ar    
  10 C10            7.6573    -7.7449    -0.6614 C.ar    
  11 C11            7.2780    -7.2565     0.5862 C.ar    
  12 C12            1.2345    -1.9565     0.1667 C.2     
  13 C13            5.5704    -6.2368     2.0870 C.2     
  14 C14            9.4879    -7.5620     0.6035 C.3     
  15 C15            5.4070    -2.3897    -1.0336 C.3     
  16 C16            4.5159    -2.5185    -3.3643 C.3     
  17 C17            3.6877    -6.2174    -0.1094 C.3     
  18 C18            4.0609    -4.3694    -1.7488 C.3     
  19 C19            2.3055    -4.1398     0.0141 C.3     
  20 C20            4.2347    -2.8567    -1.8989 C.3     
  21 C21            3.6942    -4.6995    -0.3005 C.3     
  22 N22            2.5850     1.4931     0.2213 N.ar    
  23 N23            2.3691    -2.6772     0.0683 N.am    
  24 O24            5.0690    -6.9823     2.9050 O.2     
  25 O25            0.1584    -2.5201     0.2107 O.2     
  26 O26            5.7493    -4.9344     2.3829 O.3     
  27 O27            8.9526    -8.1701    -0.5869 O.3     
  28 O28            8.3314    -7.3757     1.4412 O.3     
  29 H29           -0.6400     2.2764     0.4461 H       
  30 H30           -0.8408    -0.1972     0.3644 H       
  31 H31            4.7774    -7.2325    -2.3540 H       
  32 H32            7.0499    -8.1141    -2.6777 H       
  33 H33            1.5907     3.3103     0.3547 H       
  34 H34            3.4395    -0.3948     0.0937 H       
  35 H35           10.2053    -8.2273     1.0840 H       
  36 H36            9.9504    -6.6032     0.3692 H       
  37 H37            5.5308    -1.3121    -1.1405 H       
  38 H38            5.2066    -2.6306     0.0104 H       
  39 H39            6.3187    -2.8938    -1.3543 H       
  40 H40            5.4276    -3.0226    -3.6850 H       
  41 H41            3.6808    -2.8512    -3.9807 H       
  42 H42            4.6397    -1.4409    -3.4712 H       
  43 H43            3.0207    -6.6730    -0.8412 H       
  44 H44            3.3408    -6.4555     0.8962 H       
  45 H45            3.2662    -4.7113    -2.4118 H       
  46 H46            4.9931    -4.8699    -2.0107 H       
  47 H47            1.6060    -4.4445    -0.7643 H       
  48 H48            1.9682    -4.5247     0.9766 H       
  49 H49            3.3230    -2.3527    -1.5782 H       
  50 H50            4.4270    -4.2518     0.3708 H       
  51 H51            3.2278    -2.2275     0.0332 H       
  52 H52            5.4631    -4.6398     3.2583 H       
@<TRIPOS>BOND
   1    1    2 ar
   2    1    5 ar
   3    1   29 1
   4    2    7 ar
   5    2   30 1
   6    3    4 ar
   7    3    9 ar
   8    3   31 1
   9    4   10 ar
  10    4   32 1
  11    5   22 ar
  12    5   33 1
  13    6    7 ar
  14    6   22 ar
  15    6   34 1
  16    7   12 1
  17    8    9 ar
  18    8   11 ar
  19    8   13 1
  20    9   17 1
  21   10   11 ar
  22   10   27 1
  23   11   28 1
  24   12   23 am
  25   12   25 2
  26   13   24 2
  27   13   26 1
  28   14   27 1
  29   14   28 1
  30   14   35 1
  31   14   36 1
  32   15   20 1
  33   15   37 1
  34   15   38 1
  35   15   39 1
  36   16   20 1
  37   16   40 1
  38   16   41 1
  39   16   42 1
  40   17   21 1
  41   17   43 1
  42   17   44 1
  43   18   20 1
  44   18   21 1
  45   18   45 1
  46   18   46 1
  47   19   21 1
  48   19   23 1
  49   19   47 1
  50   19   48 1
  51   20   49 1
  52   21   50 1
  53   23   51 1
  54   26   52 1

#	End of record

