#	Name: ASD01148052
#	Creating user name:	WinNT
#	Creation time:	15. 06. 2019 19:01

#	Modifying user name:	WinNT
#	Modification time:	15. 06. 2019 19:01

#	Program:	/corina/corina34_cracker 3.40 0067  02.08.2006

@<TRIPOS>MOLECULE
ASD01148052
  53   55    0    0    0
SMALL
NO_CHARGES


@<TRIPOS>ATOM
   1 N1            -0.2311     1.7273     0.0634 N.3     
   2 C2            -0.5864     2.4999    -1.1344 C.3     
   3 C3            -2.0977     2.4242    -1.3604 C.3     
   4 O4            -2.4579     1.0918    -1.7303 O.3     
   5 C5             0.1297     1.9288    -2.3312 C.2     
   6 O6             0.8249     0.9482    -2.2080 O.2     
   7 O7            -0.0048     2.5094    -3.5339 O.3     
   8 C8             0.7138     1.9053    -4.6416 C.3     
   9 C9             0.4443     2.6873    -5.9013 C.ar    
  10 C10            1.2649     3.7444    -6.2475 C.ar    
  11 C11            1.0177     4.4617    -7.4030 C.ar    
  12 C12           -0.0499     4.1216    -8.2126 C.ar    
  13 C13           -0.8700     3.0638    -7.8669 C.ar    
  14 C14           -0.6202     2.3438    -6.7136 C.ar    
  15 C15           -0.5735     0.3086    -0.1044 C.3     
  16 C16           -0.3672    -0.4157     1.2009 C.ar    
  17 C17           -1.4044    -0.5114     2.1098 C.ar    
  18 C18           -1.2151    -1.1758     3.3071 C.ar    
  19 C19            0.0112    -1.7449     3.5954 C.ar    
  20 C20            1.0481    -1.6500     2.6862 C.ar    
  21 C21            0.8575    -0.9893     1.4870 C.ar    
  22 C22            1.1913     1.8902     0.3922 C.3     
  23 C23            1.4709     3.3364     0.7104 C.ar    
  24 C24            1.2378     3.8216     1.9837 C.ar    
  25 C25            1.9658     4.1765    -0.2695 C.ar    
  26 C26            2.2223     5.5032     0.0224 C.ar    
  27 C27            1.9835     5.9898     1.2940 C.ar    
  28 C28            1.4943     5.1482     2.2756 C.ar    
  29 H29           -0.2912     3.5400    -0.9967 H       
  30 H30           -2.6166     2.6993    -0.4421 H       
  31 H31           -2.3807     3.1117    -2.1575 H       
  32 H32           -3.4039     0.9699    -1.8896 H       
  33 H33            1.7829     1.9151    -4.4296 H       
  34 H34            0.3790     0.8765    -4.7739 H       
  35 H35            2.0990     4.0102    -5.6150 H       
  36 H36            1.6584     5.2881    -7.6731 H       
  37 H37           -0.2435     4.6824    -9.1150 H       
  38 H38           -1.7043     2.7983    -8.4993 H       
  39 H39           -1.2609     1.5174    -6.4435 H       
  40 H40           -1.6166     0.2201    -0.4081 H       
  41 H41            0.0662    -0.1315    -0.8692 H       
  42 H42           -2.3625    -0.0668     1.8845 H       
  43 H43           -2.0252    -1.2500     4.0175 H       
  44 H44            0.1593    -2.2634     4.5312 H       
  45 H45            2.0063    -2.0943     2.9116 H       
  46 H46            1.6677    -0.9152     0.7766 H       
  47 H47            1.4373     1.2738     1.2569 H       
  48 H48            1.7986     1.5814    -0.4586 H       
  49 H49            0.8550     3.1642     2.7503 H       
  50 H50            2.1524     3.7964    -1.2630 H       
  51 H51            2.6096     6.1593    -0.7430 H       
  52 H52            2.1842     7.0262     1.5222 H       
  53 H53            1.3122     5.5272     3.2703 H       
@<TRIPOS>BOND
   1    1   15 1
   2    1   22 1
   3    1    2 1
   4    2    3 1
   5    2    5 1
   6    2   29 1
   7    3    4 1
   8    3   30 1
   9    3   31 1
  10    4   32 1
  11    5    6 2
  12    5    7 1
  13    7    8 1
  14    8    9 1
  15    8   33 1
  16    8   34 1
  17    9   10 ar
  18    9   14 ar
  19   10   11 ar
  20   10   35 1
  21   11   12 ar
  22   11   36 1
  23   12   13 ar
  24   12   37 1
  25   13   14 ar
  26   13   38 1
  27   14   39 1
  28   15   16 1
  29   15   40 1
  30   15   41 1
  31   16   17 ar
  32   16   21 ar
  33   17   18 ar
  34   17   42 1
  35   18   19 ar
  36   18   43 1
  37   19   20 ar
  38   19   44 1
  39   20   21 ar
  40   20   45 1
  41   21   46 1
  42   22   23 1
  43   22   47 1
  44   22   48 1
  45   23   24 ar
  46   23   25 ar
  47   24   28 ar
  48   24   49 1
  49   25   26 ar
  50   25   50 1
  51   26   27 ar
  52   26   51 1
  53   27   28 ar
  54   27   52 1
  55   28   53 1

#	End of record

