#	Name: ASD01870015
#	Creating user name:	WinNT
#	Creation time:	15. 06. 2019 19:38

#	Modifying user name:	WinNT
#	Modification time:	15. 06. 2019 19:38

#	Program:	/corina/corina34_cracker 3.40 0067  02.08.2006

@<TRIPOS>MOLECULE
ASD01870015
  46   48    0    0    0
SMALL
NO_CHARGES


@<TRIPOS>ATOM
   1 C1            -0.0166     1.3756     0.0096 C.ar    
   2 C2             0.0021    -0.0041     0.0020 C.ar    
   3 C3             1.2082    -0.6905    -0.0133 C.ar    
   4 C4             2.3936     0.0106    -0.0204 C.ar    
   5 C5             2.3737     1.3986    -0.0137 C.ar    
   6 C6             1.1734     2.0795     0.0020 C.ar    
   7 C7             1.1793    -2.1915    -0.0222 C.3     
   8 C8             2.4453    -2.7777     0.5328 C.ar    
   9 C9             3.6305    -2.0765     0.5280 C.ar    
  10 C10            3.7228    -0.6873    -0.0344 C.3     
  11 C11            2.4058    -4.0604     1.0617 C.ar    
  12 C12            3.5464    -4.6365     1.5825 C.ar    
  13 C13            4.7362    -3.9323     1.5778 C.ar    
  14 C14            4.7770    -2.6569     1.0526 C.ar    
  15 C15            4.2233    -0.7647    -1.4537 C.2     
  16 N16            4.3895     0.3634    -2.1721 N.am    
  17 C17            4.8372     0.2941    -3.4415 C.2     
  18 O18            5.0031     1.4207    -4.1590 O.3     
  19 C19            5.4885     1.2705    -5.5192 C.3     
  20 O20            4.4766    -1.8418    -1.9492 O.2     
  21 O21            5.0909    -0.7849    -3.9380 O.2     
  22 C22            5.6129     2.6489    -6.1714 C.3     
  23 C23            6.1243     2.4906    -7.6047 C.3     
  24 C24            6.2468     3.8483    -8.2472 C.2     
  25 C25            7.3875     4.2251    -8.7697 C.2     
  26 H26           -0.9584     1.9043     0.0169 H       
  27 H27           -0.9278    -0.5533     0.0084 H       
  28 H28            3.3030     1.9488    -0.0203 H       
  29 H29            1.1637     3.1594     0.0072 H       
  30 H30            0.3365    -2.5340     0.5783 H       
  31 H31            1.0471    -2.5380    -1.0471 H       
  32 H32            4.4317    -0.1104     0.5595 H       
  33 H33            1.4766    -4.6108     1.0659 H       
  34 H34            3.5097    -5.6348     1.9931 H       
  35 H35            5.6312    -4.3789     1.9851 H       
  36 H36            5.7067    -2.1074     1.0488 H       
  37 H37            4.1869     1.2252    -1.7757 H       
  38 H38            6.4647     0.7857    -5.5051 H       
  39 H39            4.7881     0.6604    -6.0896 H       
  40 H40            4.6367     3.1336    -6.1855 H       
  41 H41            6.3133     3.2589    -5.6010 H       
  42 H42            7.1005     2.0058    -7.5907 H       
  43 H43            5.4239     1.8806    -8.1751 H       
  44 H44            5.3943     4.5106    -8.2768 H       
  45 H45            7.4753     5.1981    -9.2301 H       
  46 H46            8.2400     3.5628    -8.7401 H       
@<TRIPOS>BOND
   1    1    2 ar
   2    1    6 ar
   3    1   26 1
   4    2    3 ar
   5    2   27 1
   6    3    4 ar
   7    3    7 1
   8    4    5 ar
   9    4   10 1
  10    5    6 ar
  11    5   28 1
  12    6   29 1
  13    7    8 1
  14    7   30 1
  15    7   31 1
  16    8    9 ar
  17    8   11 ar
  18    9   10 1
  19    9   14 ar
  20   10   15 1
  21   10   32 1
  22   11   12 ar
  23   11   33 1
  24   12   13 ar
  25   12   34 1
  26   13   14 ar
  27   13   35 1
  28   14   36 1
  29   15   16 am
  30   15   20 2
  31   16   17 am
  32   16   37 1
  33   17   18 1
  34   17   21 2
  35   18   19 1
  36   19   22 1
  37   19   38 1
  38   19   39 1
  39   22   23 1
  40   22   40 1
  41   22   41 1
  42   23   24 1
  43   23   42 1
  44   23   43 1
  45   24   25 2
  46   24   44 1
  47   25   45 1
  48   25   46 1

#	End of record

