#	Name: ASD01900181
#	Creating user name:	WinNT
#	Creation time:	15. 06. 2019 19:51

#	Modifying user name:	WinNT
#	Modification time:	15. 06. 2019 19:51

#	Program:	/corina/corina34_cracker 3.40 0067  02.08.2006

@<TRIPOS>MOLECULE
ASD01900181
  32   35    0    0    0
SMALL
NO_CHARGES


@<TRIPOS>ATOM
   1 N1            -0.0167     1.3835     0.0096 N.pl3   
   2 S2            -1.3891    -0.9986     0.0100 S.3     
   3 C3             0.0021    -0.0041     0.0020 C.2     
   4 N4             1.0772    -0.7293    -0.0129 N.2     
   5 C5             0.9155    -2.0401    -0.0343 C.2     
   6 C6             1.9531    -3.1102    -0.1953 C.2     
   7 C7             1.7055    -4.1897    -1.0688 C.2     
   8 C8             0.4986    -4.2608    -1.9533 C.3     
   9 C9            -0.7820    -4.6368    -1.1879 C.3     
  10 C10           -0.7998    -3.8666     0.1424 C.3     
  11 C11           -0.3806    -2.4355     0.0240 C.2     
  12 N12            2.7121    -5.0084    -0.9708 N.2     
  13 N13            3.6484    -4.4574    -0.0811 N.pl3   
  14 C14            3.1579    -3.2779     0.3744 C.2     
  15 C15            1.1740     2.0928     0.0021 C.ar    
  16 N16            1.1379     3.4172     0.0095 N.ar    
  17 C17            2.2558     4.1241     0.0027 C.ar    
  18 C18            3.4739     3.4627    -0.0125 C.ar    
  19 C19            3.4752     2.0766    -0.0200 C.ar    
  20 N20            2.3213     1.4303    -0.0070 N.ar    
  21 H21           -0.8633     1.8571     0.0162 H       
  22 H22            0.3525    -3.2901    -2.4271 H       
  23 H23            0.6752    -5.0052    -2.7297 H       
  24 H24           -1.6557    -4.3648    -1.7802 H       
  25 H25           -0.7892    -5.7087    -0.9906 H       
  26 H26           -1.8105    -3.8997     0.5491 H       
  27 H27           -0.1310    -4.3674     0.8424 H       
  28 H28            4.4993    -4.8525     0.1654 H       
  29 H29            3.6433    -2.6025     1.0632 H       
  30 H30            2.2199     5.2035     0.0085 H       
  31 H31            4.4018     4.0154    -0.0188 H       
  32 H32            4.4072     1.5310    -0.0318 H       
@<TRIPOS>BOND
   1    1    3 1
   2    1   15 1
   3    1   21 1
   4    2    3 1
   5    2   11 1
   6    3    4 2
   7    4    5 1
   8    5    6 1
   9    5   11 2
  10    6    7 1
  11    6   14 2
  12    7    8 1
  13    7   12 2
  14    8    9 1
  15    8   22 1
  16    8   23 1
  17    9   10 1
  18    9   24 1
  19    9   25 1
  20   10   11 1
  21   10   26 1
  22   10   27 1
  23   12   13 1
  24   13   14 1
  25   13   28 1
  26   14   29 1
  27   15   16 ar
  28   15   20 ar
  29   16   17 ar
  30   17   18 ar
  31   17   30 1
  32   18   19 ar
  33   18   31 1
  34   19   20 ar
  35   19   32 1

#	End of record

