#	Name: ASD01230105
#	Creating user name:	WinNT
#	Creation time:	15. 06. 2019 19:11

#	Modifying user name:	WinNT
#	Modification time:	15. 06. 2019 19:11

#	Program:	/corina/corina34_cracker 3.40 0067  02.08.2006

@<TRIPOS>MOLECULE
ASD01230105
  45   49    0    0    0
SMALL
NO_CHARGES


@<TRIPOS>ATOM
   1 N1            -0.0167     1.3833     0.0096 N.am    
   2 C2             0.0021    -0.0041     0.0020 C.2     
   3 N3            -1.1482    -0.7329     0.0091 N.pl3   
   4 C4            -2.3872    -0.1000     0.0243 C.ar    
   5 C5            -2.4442     1.3046     0.0324 C.ar    
   6 C6            -1.1816     2.0629     0.0300 C.2     
   7 C7             1.0443    -0.8829    -0.0127 C.2     
   8 C8             0.5121    -2.1835    -0.0145 C.2     
   9 N9            -0.8012    -2.0915    -0.0015 N.2     
  10 C10           -3.5611    -0.8335     0.0310 C.ar    
  11 C11           -4.7863    -0.1709     0.0457 C.ar    
  12 C12           -4.8327     1.2257     0.0533 C.ar    
  13 C13           -3.6781     1.9558     0.0471 C.ar    
  14 C14            1.2955    -3.4437    -0.0287 C.ar    
  15 C15            1.2486     2.1216     0.0015 C.3     
  16 C16            2.6882    -3.4012    -0.0360 C.ar    
  17 O17           -1.1893     3.2796     0.0368 O.2     
  18 C18           -6.0467    -0.9508     0.0530 C.ar    
  19 C19           -6.0155    -2.3433     0.0452 C.ar    
  20 N20           -7.1332    -3.0408     0.0516 N.ar    
  21 C21           -8.3211    -2.4542     0.0655 C.ar    
  22 C22           -8.4323    -1.0663     0.0736 C.ar    
  23 C23           -7.2853    -0.2981     0.0736 C.ar    
  24 N24           -9.4701    -3.2336     0.0717 N.pl3   
  25 C25            0.6411    -4.6739    -0.0290 C.ar    
  26 C26            1.3747    -5.8429    -0.0423 C.ar    
  27 C27            2.7571    -5.7948    -0.0553 C.ar    
  28 C28            3.4119    -4.5764    -0.0493 C.ar    
  29 H29            2.0930    -0.6252    -0.0213 H       
  30 H30           -3.5273    -1.9130     0.0245 H       
  31 H31           -5.7872     1.7310     0.0643 H       
  32 H32           -3.7204     3.0349     0.0533 H       
  33 H33            1.5526     2.3102    -1.0281 H       
  34 H34            1.1189     3.0706     0.5217 H       
  35 H35            2.0158     1.5332     0.5049 H       
  36 H36            3.2005    -2.4504    -0.0317 H       
  37 H37           -5.0653    -2.8565     0.0334 H       
  38 H38           -9.4046    -0.5962     0.0846 H       
  39 H39           -7.3419     0.7804     0.0801 H       
  40 H40           -9.3999    -4.2010     0.0658 H       
  41 H41          -10.3429    -2.8107     0.0819 H       
  42 H42           -0.4381    -4.7126    -0.0185 H       
  43 H43            0.8686    -6.7969    -0.0422 H       
  44 H44            3.3272    -6.7120    -0.0657 H       
  45 H45            4.4914    -4.5446    -0.0594 H       
@<TRIPOS>BOND
   1    1    2 1
   2    1   15 1
   3    1    6 am
   4    2    3 1
   5    2    7 2
   6    3    4 1
   7    3    9 1
   8    4    5 ar
   9    4   10 ar
  10    5    6 1
  11    5   13 ar
  12    6   17 2
  13    7    8 1
  14    7   29 1
  15    8    9 2
  16    8   14 1
  17   10   11 ar
  18   10   30 1
  19   11   12 ar
  20   11   18 1
  21   12   13 ar
  22   12   31 1
  23   13   32 1
  24   14   25 ar
  25   14   16 ar
  26   15   33 1
  27   15   34 1
  28   15   35 1
  29   16   28 ar
  30   16   36 1
  31   18   19 ar
  32   18   23 ar
  33   19   20 ar
  34   19   37 1
  35   20   21 ar
  36   21   22 ar
  37   21   24 1
  38   22   23 ar
  39   22   38 1
  40   23   39 1
  41   24   40 1
  42   24   41 1
  43   25   26 ar
  44   25   42 1
  45   26   27 ar
  46   26   43 1
  47   27   28 ar
  48   27   44 1
  49   28   45 1

#	End of record

