#	Name: ASD01810787
#	Creating user name:	WinNT
#	Creation time:	15. 06. 2019 19:25

#	Modifying user name:	WinNT
#	Modification time:	15. 06. 2019 19:25

#	Program:	/corina/corina34_cracker 3.40 0067  02.08.2006

@<TRIPOS>MOLECULE
ASD01810787
  32   33    0    0    0
SMALL
NO_CHARGES


@<TRIPOS>ATOM
   1 C1            -0.0157     1.4717     0.0867 C.2     
   2 C2             0.0032    -0.0048     0.0392 C.ar    
   3 C3             1.2138    -0.6851    -0.1187 C.ar    
   4 C4             1.2335    -2.0647    -0.1627 C.ar    
   5 C5             0.0589    -2.7824    -0.0517 C.ar    
   6 C6            -1.1588    -2.1154     0.1066 C.ar    
   7 C7            -1.1852    -0.7226     0.1576 C.ar    
   8 O8             1.0283     2.0926     0.0939 O.2     
   9 O9            -1.1908     2.1296     0.1162 O.3     
  10 C10            2.5007     0.0894    -0.2416 C.3     
  11 C11            0.0904    -4.2882    -0.1020 C.3     
  12 C12            0.5365    -4.9422    -1.4112 C.3     
  13 C13            1.4603    -4.9636    -0.1917 C.3     
  14 C14           -2.4137    -2.8842     0.2251 C.2     
  15 N15           -2.9072    -3.1851     1.4426 N.am    
  16 S16           -3.2418    -3.3934    -1.1841 S.2     
  17 C17           -1.1335     3.5798     0.1623 C.3     
  18 H18            2.1719    -2.5852    -0.2849 H       
  19 H19           -2.1230    -0.2021     0.2843 H       
  20 H20            2.8640     0.3506     0.7523 H       
  21 H21            3.2453    -0.5219    -0.7515 H       
  22 H22            2.3237     0.9996    -0.8146 H       
  23 H23           -0.6837    -4.7941     0.4751 H       
  24 H24            0.0562    -5.8786    -1.6953 H       
  25 H25            0.8073    -4.2833    -2.2362 H       
  26 H26            2.3388    -4.3188    -0.2145 H       
  27 H27            1.5877    -5.9140     0.3265 H       
  28 H28           -2.4379    -2.8966     2.2410 H       
  29 H29           -3.7316    -3.6902     1.5204 H       
  30 H30           -2.1459     3.9830     0.1825 H       
  31 H31           -0.5992     3.8940     1.0589 H       
  32 H32           -0.6121     3.9509    -0.7201 H       
@<TRIPOS>BOND
   1    1    2 1
   2    1    8 2
   3    1    9 1
   4    2    3 ar
   5    2    7 ar
   6    3    4 ar
   7    3   10 1
   8    4    5 ar
   9    4   18 1
  10    5    6 ar
  11    5   11 1
  12    6    7 ar
  13    6   14 1
  14    7   19 1
  15    9   17 1
  16   10   20 1
  17   10   21 1
  18   10   22 1
  19   11   12 1
  20   11   13 1
  21   11   23 1
  22   12   13 1
  23   12   24 1
  24   12   25 1
  25   13   26 1
  26   13   27 1
  27   14   15 am
  28   14   16 2
  29   15   28 1
  30   15   29 1
  31   17   30 1
  32   17   31 1
  33   17   32 1

#	End of record

