#	Name: ASD01000064
#	Creating user name:	WinNT
#	Creation time:	15. 06. 2019 18:54

#	Modifying user name:	WinNT
#	Modification time:	15. 06. 2019 18:54

#	Program:	/corina/corina34_cracker 3.40 0067  02.08.2006

@<TRIPOS>MOLECULE
ASD01000064
  45   47    0    0    0
SMALL
NO_CHARGES


@<TRIPOS>ATOM
   1 C1             0.9772     1.5814    -0.6053 C.ar    
   2 C2             1.2405     0.2335    -0.7643 C.ar    
   3 C3             0.9042    -0.6615     0.2347 C.ar    
   4 C4             0.3043    -0.2107     1.3943 C.ar    
   5 C5             0.0394     1.1416     1.5565 C.ar    
   6 C6             0.3776     2.0374     0.5529 C.ar    
   7 C7             1.1922    -2.1302     0.0579 C.3     
   8 C8            -0.0939    -2.9096     0.1557 C.ar    
   9 C9            -0.4469    -3.5141     1.3477 C.ar    
  10 C10           -1.6265    -4.2291     1.4373 C.ar    
  11 C11           -2.4535    -4.3391     0.3351 C.ar    
  12 C12           -2.1011    -3.7338    -0.8566 C.ar    
  13 C13           -0.9235    -3.0152    -0.9450 C.ar    
  14 S14            1.9449    -2.4072    -1.5691 S.3     
  15 C15            3.5477    -1.5700    -1.4251 C.3     
  16 C16            4.2555    -1.5866    -2.7814 C.3     
  17 N17            5.5534    -0.9087    -2.6648 N.3     
  18 C18            2.1409    -2.5893     1.1351 C.ar    
  19 C19            2.5293    -3.9146     1.1951 C.ar    
  20 C20            2.6271    -1.6840     2.0597 C.ar    
  21 C21            3.4973    -2.1051     3.0477 C.ar    
  22 C22            3.8810    -3.4317     3.1114 C.ar    
  23 C23            3.3995    -4.3357     2.1831 C.ar    
  24 O24           -0.5512     1.5876     2.6963 O.3     
  25 H25            1.2445     2.2790    -1.3853 H       
  26 H26            1.7092    -0.1210    -1.6704 H       
  27 H27            0.0412    -0.9103     2.1740 H       
  28 H28            0.1728     3.0905     0.6769 H       
  29 H29            0.1993    -3.4282     2.2088 H       
  30 H30           -1.9019    -4.7020     2.3684 H       
  31 H31           -3.3749    -4.8983     0.4049 H       
  32 H32           -2.7470    -3.8200    -1.7179 H       
  33 H33           -0.6481    -2.5422    -1.8761 H       
  34 H34            3.3917    -0.5385    -1.1092 H       
  35 H35            4.1625    -2.0866    -0.6880 H       
  36 H36            4.4114    -2.6181    -3.0972 H       
  37 H37            3.6407    -1.0700    -3.5184 H       
  38 H38            6.1175    -1.3295    -1.9417 H       
  39 H39            6.0409    -0.9063    -3.5482 H       
  40 H40            2.1526    -4.6211     0.4702 H       
  41 H41            2.3274    -0.6476     2.0099 H       
  42 H42            3.8778    -1.3977     3.7697 H       
  43 H43            4.5611    -3.7606     3.8832 H       
  44 H44            3.6992    -5.3721     2.2329 H       
  45 H45            0.0730     1.8282     3.3945 H       
@<TRIPOS>BOND
   1    1    2 ar
   2    1    6 ar
   3    1   25 1
   4    2    3 ar
   5    2   26 1
   6    3    4 ar
   7    3    7 1
   8    4    5 ar
   9    4   27 1
  10    5    6 ar
  11    5   24 1
  12    6   28 1
  13    7    8 1
  14    7   14 1
  15    7   18 1
  16    8    9 ar
  17    8   13 ar
  18    9   10 ar
  19    9   29 1
  20   10   11 ar
  21   10   30 1
  22   11   12 ar
  23   11   31 1
  24   12   13 ar
  25   12   32 1
  26   13   33 1
  27   14   15 1
  28   15   16 1
  29   15   34 1
  30   15   35 1
  31   16   17 1
  32   16   36 1
  33   16   37 1
  34   17   38 1
  35   17   39 1
  36   18   19 ar
  37   18   20 ar
  38   19   23 ar
  39   19   40 1
  40   20   21 ar
  41   20   41 1
  42   21   22 ar
  43   21   42 1
  44   22   23 ar
  45   22   43 1
  46   23   44 1
  47   24   45 1

#	End of record

