#	Name: ASD01910674
#	Creating user name:	WinNT
#	Creation time:	15. 06. 2019 19:56

#	Modifying user name:	WinNT
#	Modification time:	15. 06. 2019 19:56

#	Program:	/corina/corina34_cracker 3.40 0067  02.08.2006

@<TRIPOS>MOLECULE
ASD01910674
  29   31    0    0    0
SMALL
NO_CHARGES


@<TRIPOS>ATOM
   1 C1            -0.0167     1.3812     0.0096 C.ar    
   2 C2             0.0021    -0.0041     0.0020 C.ar    
   3 C3             1.2108    -0.6874    -0.0132 C.ar    
   4 C4             2.4009     0.0116    -0.0209 C.ar    
   5 C5             2.3865     1.4095    -0.0133 C.ar    
   6 C6             1.1660     2.0903     0.0022 C.ar    
   7 C7             3.6175     2.1411    -0.0207 C.1     
   8 C8             4.6268     2.7408    -0.0267 C.1     
   9 C9             5.8578     3.4724    -0.0341 C.ar    
  10 C10            5.8422     4.8728    -0.0264 C.ar    
  11 C11            7.0159     5.5634    -0.0331 C.ar    
  12 C12            8.2396     4.8844    -0.0475 C.ar    
  13 C13            8.2542     3.4853    -0.0549 C.ar    
  14 C14            7.0796     2.7895    -0.0432 C.ar    
  15 C15            7.3460     7.0355    -0.0276 C.3     
  16 N16            8.8103     7.1271    -0.0397 N.am    
  17 C17            9.3219     5.8845    -0.0512 C.2     
  18 O18           10.5091     5.6226    -0.0623 O.2     
  19 F19            1.2219    -2.0383    -0.0202 F       
  20 F20           -1.1602    -0.6928     0.0099 F       
  21 H21           -0.9600     1.9071     0.0170 H       
  22 H22            3.3410    -0.5200    -0.0324 H       
  23 H23            1.1492     3.1702     0.0078 H       
  24 H24            4.9017     5.4036    -0.0157 H       
  25 H25            9.1952     2.9554    -0.0660 H       
  26 H26            7.0931     1.7096    -0.0489 H       
  27 H27            6.9332     7.5153    -0.9149 H       
  28 H28            6.9486     7.5052     0.8722 H       
  29 H29            9.3246     7.9496    -0.0392 H       
@<TRIPOS>BOND
   1    1    2 ar
   2    1    6 ar
   3    1   21 1
   4    2    3 ar
   5    2   20 1
   6    3    4 ar
   7    3   19 1
   8    4    5 ar
   9    4   22 1
  10    5    6 ar
  11    5    7 1
  12    6   23 1
  13    7    8 3
  14    8    9 1
  15    9   10 ar
  16    9   14 ar
  17   10   11 ar
  18   10   24 1
  19   11   12 ar
  20   11   15 1
  21   12   13 ar
  22   12   17 1
  23   13   14 ar
  24   13   25 1
  25   14   26 1
  26   15   16 1
  27   15   27 1
  28   15   28 1
  29   16   17 am
  30   16   29 1
  31   17   18 2

#	End of record

