#	Name: ASD01881211
#	Creating user name:	WinNT
#	Creation time:	15. 06. 2019 19:42

#	Modifying user name:	WinNT
#	Modification time:	15. 06. 2019 19:42

#	Program:	/corina/corina34_cracker 3.40 0067  02.08.2006

@<TRIPOS>MOLECULE
ASD01881211
  55   58    0    0    0
SMALL
NO_CHARGES


@<TRIPOS>ATOM
   1 N1            -0.0169     1.3166     0.0134 N.ar    
   2 C2             0.0031    -0.0059     0.0028 C.ar    
   3 N3             1.1394    -0.6838    -0.0154 N.ar    
   4 C4             2.3068    -0.0569    -0.0240 C.ar    
   5 C5             2.3319     1.3240    -0.0139 C.ar    
   6 C6             1.1166     2.0113     0.0057 C.ar    
   7 C7             3.6404     2.0715    -0.0228 C.3     
   8 O8             4.7208     1.1417     0.0796 O.3     
   9 C9             5.9770     1.6552     0.0856 C.ar    
  10 C10            7.0749     0.8051     0.1829 C.ar    
  11 C11            8.3452     1.3245     0.1884 C.ar    
  12 C12            8.5457     2.7061     0.0967 C.ar    
  13 C13            7.4392     3.5566    -0.0009 C.ar    
  14 C14            6.1657     3.0280    -0.0112 C.ar    
  15 C15            9.7157     0.7008     0.2782 C.3     
  16 N16           10.6745     1.8106     0.2311 N.am    
  17 C17            9.9948     2.9653     0.1264 C.2     
  18 O18           10.5043     4.0676     0.0644 O.2     
  19 Cl19           7.6693     5.2735    -0.1149 Cl      
  20 N20            1.0924     3.3964     0.0159 N.3     
  21 C21            0.5160     3.8985    -1.1625 C.3     
  22 C22            0.6583     5.4333    -1.2511 C.3     
  23 C23           -0.3299     6.0760    -0.3118 C.3     
  24 O24            0.2200     6.3190     0.9992 O.3     
  25 C25            1.0465     5.2738     1.5432 C.3     
  26 C26            0.4814     3.9055     1.2593 C.3     
  27 C27           12.6875     1.5341    -1.1300 C.3     
  28 C28           12.1326     1.6811     0.2882 C.3     
  29 O29           -1.1696    -0.6837     0.0111 O.3     
  30 C30           -1.0943    -2.1107    -0.0010 C.3     
  31 H31            3.2285    -0.6196    -0.0385 H       
  32 H32            3.7315     2.6334    -0.9523 H       
  33 H33            3.6717     2.7593     0.8222 H       
  34 H34            6.9271    -0.2624     0.2543 H       
  35 H35            5.3114     3.6844    -0.0870 H       
  36 H36            9.8188     0.1561     1.2168 H       
  37 H37            9.8779     0.0294    -0.5650 H       
  38 H38            1.0094     3.4447    -2.0220 H       
  39 H39           -0.5420     3.6370    -1.1812 H       
  40 H40            1.6705     5.7223    -0.9685 H       
  41 H41            0.4565     5.7596    -2.2713 H       
  42 H42           -0.6539     7.0253    -0.7385 H       
  43 H43           -1.1972     5.4232    -0.2136 H       
  44 H44            2.0421     5.3444     1.1052 H       
  45 H45            1.1247     5.4085     2.6220 H       
  46 H46           -0.5993     3.9741     1.1351 H       
  47 H47            0.7164     3.2336     2.0848 H       
  48 H48           13.7724     1.4378    -1.0875 H       
  49 H49           12.2619     0.6456    -1.5964 H       
  50 H50           12.4236     2.4141    -1.7165 H       
  51 H51           12.5583     2.5696     0.7546 H       
  52 H52           12.3966     0.8011     0.8747 H       
  53 H53           -0.5724    -2.4393    -0.8997 H       
  54 H54           -0.5517    -2.4533     0.8801 H       
  55 H55           -2.1013    -2.5277     0.0075 H       
@<TRIPOS>BOND
   1    1    2 ar
   2    1    6 ar
   3    2    3 ar
   4    2   29 1
   5    3    4 ar
   6    4    5 ar
   7    4   31 1
   8    5    6 ar
   9    5    7 1
  10    6   20 1
  11    7    8 1
  12    7   32 1
  13    7   33 1
  14    8    9 1
  15    9   10 ar
  16    9   14 ar
  17   10   11 ar
  18   10   34 1
  19   11   12 ar
  20   11   15 1
  21   12   13 ar
  22   12   17 1
  23   13   14 ar
  24   13   19 1
  25   14   35 1
  26   15   16 1
  27   15   36 1
  28   15   37 1
  29   16   17 am
  30   16   28 1
  31   17   18 2
  32   20   21 1
  33   20   26 1
  34   21   22 1
  35   21   38 1
  36   21   39 1
  37   22   23 1
  38   22   40 1
  39   22   41 1
  40   23   24 1
  41   23   42 1
  42   23   43 1
  43   24   25 1
  44   25   26 1
  45   25   44 1
  46   25   45 1
  47   26   46 1
  48   26   47 1
  49   27   28 1
  50   27   48 1
  51   27   49 1
  52   27   50 1
  53   28   51 1
  54   28   52 1
  55   29   30 1
  56   30   53 1
  57   30   54 1
  58   30   55 1

#	End of record

