#	Name: ASD01811346
#	Creating user name:	WinNT
#	Creation time:	15. 06. 2019 19:26

#	Modifying user name:	WinNT
#	Modification time:	15. 06. 2019 19:26

#	Program:	/corina/corina34_cracker 3.40 0067  02.08.2006

@<TRIPOS>MOLECULE
ASD01811346
  62   64    0    0    0
SMALL
NO_CHARGES


@<TRIPOS>ATOM
   1 N1             0.1247     1.1269    -1.3956 N.am    
   2 C2             0.1631    -0.2029    -1.1801 C.2     
   3 O3            -0.7024    -0.9194    -1.6448 O.2     
   4 N4             1.1610    -0.7387    -0.4496 N.am    
   5 C5             1.1676     1.9902    -0.8358 C.3     
   6 C6            -0.9567     1.7085    -2.1948 C.3     
   7 C7            -2.1239     2.0816    -1.2787 C.3     
   8 O8            -1.7150     3.1185    -0.3844 O.3     
   9 C9            -2.7372     3.5430     0.5195 C.3     
  10 C10            1.1438    -2.1025    -0.1349 C.ar    
  11 C11            2.3379    -2.8046    -0.0212 C.ar    
  12 C12            2.3263    -4.1512     0.2897 C.ar    
  13 C13            1.1288    -4.8079     0.4893 C.ar    
  14 C14           -0.0758    -4.1118     0.3773 C.ar    
  15 C15           -0.0637    -2.7514     0.0687 C.ar    
  16 C16            3.6497    -2.0952    -0.2380 C.3     
  17 C17           -1.3601    -4.8128     0.5905 C.2     
  18 O18           -2.2200    -4.3078     1.2856 O.2     
  19 N19           -1.5773    -6.0116     0.0142 N.am    
  20 C20           -2.8824    -6.6754     0.1364 C.3     
  21 C21           -3.3917    -7.0235    -1.2658 C.3     
  22 C22           -2.3322    -7.8499    -1.9985 C.3     
  23 C23           -1.0496    -7.0272    -2.1408 C.3     
  24 C24           -0.5155    -6.6766    -0.7532 C.3     
  25 F25           -2.0616    -9.0127    -1.2691 F       
  26 C26           -2.8438    -8.2231    -3.3660 C.ar    
  27 C27           -2.2098    -9.2165    -4.0909 C.ar    
  28 C28           -2.6727    -9.5631    -5.3433 C.ar    
  29 C29           -3.7841    -8.9091    -5.8789 C.ar    
  30 C30           -4.4193    -7.9078    -5.1416 C.ar    
  31 C31           -3.9487    -7.5746    -3.8885 C.ar    
  32 C32           -4.2699    -9.2634    -7.1786 C.1     
  33 N33           -4.6552    -9.5444    -8.2096 N.1     
  34 H34            1.8911    -0.1791    -0.1418 H       
  35 H35            1.9855     2.0821    -1.5504 H       
  36 H36            0.7515     2.9766    -0.6309 H       
  37 H37            1.5417     1.5541     0.0905 H       
  38 H38           -0.5932     2.6020    -2.7024 H       
  39 H39           -1.2931     0.9819    -2.9344 H       
  40 H40           -2.9617     2.4315    -1.8819 H       
  41 H41           -2.4297     1.2067    -0.7051 H       
  42 H42           -2.3479     4.3313     1.1639 H       
  43 H43           -3.5876     3.9232    -0.0464 H       
  44 H44           -3.0556     2.6984     1.1305 H       
  45 H45            3.2574    -4.6915     0.3764 H       
  46 H46            1.1239    -5.8603     0.7317 H       
  47 H47           -0.9925    -2.2067    -0.0152 H       
  48 H48            4.0064    -1.6931     0.7102 H       
  49 H49            4.3824    -2.7989    -0.6330 H       
  50 H50            3.5090    -1.2803    -0.9482 H       
  51 H51           -2.7747    -7.5878     0.7230 H       
  52 H52           -3.5889    -6.0051     0.6259 H       
  53 H53           -4.3124    -7.6014    -1.1854 H       
  54 H54           -3.5850    -6.1056    -1.8209 H       
  55 H55           -0.3034    -7.6078    -2.6832 H       
  56 H56           -1.2651    -6.1093    -2.6877 H       
  57 H57            0.3391    -6.0071    -0.8506 H       
  58 H58           -0.2109    -7.5891    -0.2407 H       
  59 H59           -1.3503    -9.7215    -3.6754 H       
  60 H60           -2.1765   -10.3382    -5.9084 H       
  61 H61           -5.2794    -7.3980    -5.5500 H       
  62 H62           -4.4416    -6.8031    -3.3154 H       
@<TRIPOS>BOND
   1    1    2 am
   2    1    5 1
   3    1    6 1
   4    2    3 2
   5    2    4 am
   6    4   10 1
   7    4   34 1
   8    5   35 1
   9    5   36 1
  10    5   37 1
  11    6    7 1
  12    6   38 1
  13    6   39 1
  14    7    8 1
  15    7   40 1
  16    7   41 1
  17    8    9 1
  18    9   42 1
  19    9   43 1
  20    9   44 1
  21   10   11 ar
  22   10   15 ar
  23   11   12 ar
  24   11   16 1
  25   12   13 ar
  26   12   45 1
  27   13   14 ar
  28   13   46 1
  29   14   15 ar
  30   14   17 1
  31   15   47 1
  32   16   48 1
  33   16   49 1
  34   16   50 1
  35   17   18 2
  36   17   19 am
  37   19   20 1
  38   19   24 1
  39   20   21 1
  40   20   51 1
  41   20   52 1
  42   21   22 1
  43   21   53 1
  44   21   54 1
  45   22   23 1
  46   22   25 1
  47   22   26 1
  48   23   24 1
  49   23   55 1
  50   23   56 1
  51   24   57 1
  52   24   58 1
  53   26   27 ar
  54   26   31 ar
  55   27   28 ar
  56   27   59 1
  57   28   29 ar
  58   28   60 1
  59   29   30 ar
  60   29   32 1
  61   30   31 ar
  62   30   61 1
  63   31   62 1
  64   32   33 3

#	End of record

