#	Name: ASD01901134
#	Creating user name:	WinNT
#	Creation time:	15. 06. 2019 19:53

#	Modifying user name:	WinNT
#	Modification time:	15. 06. 2019 19:53

#	Program:	/corina/corina34_cracker 3.40 0067  02.08.2006

@<TRIPOS>MOLECULE
ASD01901134
  47   50    0    0    0
SMALL
NO_CHARGES


@<TRIPOS>ATOM
   1 C1            -0.0166     1.3750     0.0096 C.ar    
   2 C2             0.0021    -0.0041     0.0020 C.ar    
   3 C3             1.2078    -0.6830    -0.0131 C.ar    
   4 C4             2.4027     0.0149    -0.0208 C.ar    
   5 C5             2.3997     1.3941    -0.0129 C.ar    
   6 C6             1.1860     2.0866     0.0019 C.ar    
   7 C7             1.1748     3.5185     0.0093 C.1     
   8 C8             1.1655     4.6925     0.0153 C.1     
   9 C9             1.1543     6.1244     0.0226 C.ar    
  10 C10            2.3581     6.8345     0.0149 C.ar    
  11 C11            2.3436     8.2137     0.0215 C.ar    
  12 C12            1.1338     8.8981     0.0358 C.ar    
  13 C13           -0.0674     8.1951     0.0440 C.ar    
  14 C14           -0.0610     6.8157     0.0316 C.ar    
  15 N15            1.1236    10.3000     0.0425 N.am    
  16 C16            1.1081    10.9353    -1.1428 C.2     
  17 C17            1.0059    12.4493    -1.1633 C.3     
  18 C18            0.9404    13.1303     0.2176 C.3     
  19 N19            1.1356    12.2493     1.3809 N.am    
  20 C20            1.1244    10.9202     1.2265 C.2     
  21 O21            1.1752    10.3085    -2.1784 O.2     
  22 O22            1.1198    10.2320     2.2282 O.2     
  23 Cl23           3.8386     9.0962     0.0126 Cl      
  24 F24           -1.2409     8.8644     0.0587 F       
  25 C25            2.0075    14.1811     0.2713 C.2     
  26 N26            2.7328    14.4361     1.3612 N.am    
  27 C27            2.6768    13.6712     2.5993 C.3     
  28 C28            1.3658    12.8727     2.6884 C.3     
  29 C29           -0.4169    13.8243     0.3478 C.3     
  30 O30            2.2230    14.8332    -0.7283 O.2     
  31 H31           -0.9584     1.9035     0.0169 H       
  32 H32           -0.9266    -0.5554     0.0083 H       
  33 H33            1.2163    -1.7630    -0.0187 H       
  34 H34            3.3399    -0.5217    -0.0326 H       
  35 H35            3.3330     1.9375    -0.0182 H       
  36 H36            3.2986     6.3038     0.0042 H       
  37 H37           -0.9933     6.2705     0.0334 H       
  38 H38            1.8706    12.8428    -1.6976 H       
  39 H39            0.1112    12.7237    -1.7222 H       
  40 H40            3.3444    15.1882     1.3265 H       
  41 H41            3.5213    12.9829     2.6343 H       
  42 H42            2.7367    14.3547     3.4463 H       
  43 H43            0.5418    13.5455     2.9261 H       
  44 H44            1.4462    12.1021     3.4551 H       
  45 H45           -1.2130    13.0852     0.2577 H       
  46 H46           -0.4832    14.3131     1.3198 H       
  47 H47           -0.5214    14.5690    -0.4412 H       
@<TRIPOS>BOND
   1    1    2 ar
   2    1    6 ar
   3    1   31 1
   4    2    3 ar
   5    2   32 1
   6    3    4 ar
   7    3   33 1
   8    4    5 ar
   9    4   34 1
  10    5    6 ar
  11    5   35 1
  12    6    7 1
  13    7    8 3
  14    8    9 1
  15    9   10 ar
  16    9   14 ar
  17   10   11 ar
  18   10   36 1
  19   11   12 ar
  20   11   23 1
  21   12   13 ar
  22   12   15 1
  23   13   14 ar
  24   13   24 1
  25   14   37 1
  26   15   16 am
  27   15   20 am
  28   16   17 1
  29   16   21 2
  30   17   18 1
  31   17   38 1
  32   17   39 1
  33   18   25 1
  34   18   29 1
  35   18   19 1
  36   19   20 am
  37   19   28 1
  38   20   22 2
  39   25   26 am
  40   25   30 2
  41   26   27 1
  42   26   40 1
  43   27   28 1
  44   27   41 1
  45   27   42 1
  46   28   43 1
  47   28   44 1
  48   29   45 1
  49   29   46 1
  50   29   47 1

#	End of record

