#	Name: ASD01914800
#	Creating user name:	WinNT
#	Creation time:	15. 06. 2019 20:04

#	Modifying user name:	WinNT
#	Modification time:	15. 06. 2019 20:04

#	Program:	/corina/corina34_cracker 3.40 0067  02.08.2006

@<TRIPOS>MOLECULE
ASD01914800
  18   19    0    0    0
SMALL
NO_CHARGES


@<TRIPOS>ATOM
   1 C1            -0.0168     1.3891     0.0097 C.ar    
   2 C2             0.0021    -0.0041     0.0020 C.ar    
   3 C3             1.2339    -0.6631    -0.0133 C.ar    
   4 C4             2.3879     0.1019    -0.0202 C.ar    
   5 C5             2.2854     1.4807    -0.0118 C.ar    
   6 N6             1.1077     2.0749     0.0026 N.ar    
   7 N7            -2.7994    -2.3127    -0.3452 N.pl3   
   8 N8            -1.4801    -1.9198    -0.6038 N.2     
   9 C9            -1.2658    -0.7755     0.0104 C.2     
  10 C10           -2.4523    -0.4126     0.6780 C.2     
  11 C11           -3.3716    -1.3743     0.4404 C.2     
  12 Br12          -2.7118     1.1426     1.7218 Br      
  13 H13           -0.9621     1.9114     0.0170 H       
  14 H14            1.2846    -1.7419    -0.0192 H       
  15 H15            3.3577    -0.3733    -0.0316 H       
  16 H16            3.1835     2.0806    -0.0167 H       
  17 H17           -3.2290    -3.1170    -0.6762 H       
  18 H18           -4.3852    -1.3898     0.8129 H       
@<TRIPOS>BOND
   1    1    2 ar
   2    1    6 ar
   3    1   13 1
   4    2    3 ar
   5    2    9 1
   6    3    4 ar
   7    3   14 1
   8    4    5 ar
   9    4   15 1
  10    5    6 ar
  11    5   16 1
  12    7    8 1
  13    7   11 1
  14    7   17 1
  15    8    9 2
  16    9   10 1
  17   10   11 2
  18   10   12 1
  19   11   18 1

#	End of record

