#	Name: ASD03330080
#	Creating user name:	WinNT
#	Creation time:	15. 06. 2019 20:36

#	Modifying user name:	WinNT
#	Modification time:	15. 06. 2019 20:36

#	Program:	/corina/corina34_cracker 3.40 0067  02.08.2006

@<TRIPOS>MOLECULE
ASD03330080
  68   72    0    0    0
SMALL
NO_CHARGES


@<TRIPOS>ATOM
   1 C1             0.1311     1.4729     0.0116 C.2     
   2 C2             0.0250     0.2594     0.6225 C.2     
   3 C3             1.3304     2.1212     0.2219 C.2     
   4 C4             2.2167     1.4288     1.0152 C.2     
   5 S5             1.4995    -0.0981     1.5097 S.3     
   6 C6             3.5641     1.8967     1.3927 C.ar    
   7 C7             3.9680     1.8684     2.7311 C.ar    
   8 C8             4.4440     2.3646     0.4140 C.ar    
   9 C9             5.7021     2.8007     0.7734 C.ar    
  10 C10            6.0946     2.7752     2.1013 C.ar    
  11 C11            5.2298     2.3078     3.0768 C.ar    
  12 C12            1.6387     3.4503    -0.3579 C.ar    
  13 C13            1.5482     3.6500    -1.7348 C.ar    
  14 C14            2.0143     4.5050     0.4731 C.ar    
  15 C15            2.3005     5.7403    -0.0695 C.ar    
  16 C16            2.2145     5.9342    -1.4414 C.ar    
  17 C17            1.8357     4.8877    -2.2710 C.ar    
  18 C18           -1.1462    -0.6183     0.5503 C.2     
  19 O19           -2.2655    -0.1479     0.6368 O.2     
  20 O20            2.4968     7.1528    -1.9729 O.3     
  21 N21           -0.9840    -1.9464     0.3881 N.am    
  22 C22           -2.1473    -2.8269     0.2143 C.3     
  23 C23            0.3597    -2.5404     0.3755 C.3     
  24 C24            0.5198    -3.3708    -0.9018 C.3     
  25 C25           -0.6187    -4.3898    -0.9891 C.3     
  26 C26           -1.9539    -3.6535    -1.0609 C.3     
  27 C27           -0.4455    -5.2314    -2.2272 C.ar    
  28 C28           -1.3761    -5.1604    -3.2469 C.ar    
  29 C29           -1.2172    -5.9324    -4.3825 C.ar    
  30 C30           -0.1275    -6.7750    -4.4986 C.ar    
  31 C31            0.8036    -6.8452    -3.4793 C.ar    
  32 C32            0.6470    -6.0700    -2.3455 C.ar    
  33 Cl33           2.8849     1.2827     3.9548 Cl      
  34 Cl34           7.6804     3.3255     2.5442 Cl      
  35 C35           -0.5926    -5.2773     0.2286 C.2     
  36 N36           -1.5891    -6.1596     0.4409 N.am    
  37 O37            0.3250    -5.1976     1.0176 O.2     
  38 C38            2.3882     7.2826    -3.3918 C.3     
  39 C39            2.7415     8.7138    -3.8015 C.3     
  40 O40            4.1153     8.9695    -3.5025 O.3     
  41 H41           -0.6595     1.8920    -0.5931 H       
  42 H42            4.1399     2.3846    -0.6221 H       
  43 H43            6.3831     3.1626     0.0173 H       
  44 H44            5.5420     2.2908     4.1106 H       
  45 H45            1.2535     2.8362    -2.3809 H       
  46 H46            2.0808     4.3550     1.5406 H       
  47 H47            2.5915     6.5576     0.5736 H       
  48 H48            1.7697     5.0419    -3.3379 H       
  49 H49           -2.2324    -3.4935     1.0725 H       
  50 H50           -3.0515    -2.2246     0.1258 H       
  51 H51            1.1092    -1.7492     0.3933 H       
  52 H52            0.4832    -3.1832     1.2471 H       
  53 H53            0.4865    -2.7128    -1.7701 H       
  54 H54            1.4756    -3.8944    -0.8780 H       
  55 H55           -2.7644    -4.3773    -1.1466 H       
  56 H56           -1.9601    -2.9951    -1.9295 H       
  57 H57           -2.2275    -4.5021    -3.1561 H       
  58 H58           -1.9446    -5.8775    -5.1789 H       
  59 H59           -0.0037    -7.3786    -5.3856 H       
  60 H60            1.6548    -7.5037    -3.5699 H       
  61 H61            1.3745    -6.1249    -1.5492 H       
  62 H62           -2.2843    -6.2756    -0.2255 H       
  63 H63           -1.6110    -6.6787     1.2600 H       
  64 H64            3.0748     6.5867    -3.8739 H       
  65 H65            1.3672     7.0580    -3.7002 H       
  66 H66            2.5735     8.8374    -4.8714 H       
  67 H67            2.1134     9.4147    -3.2517 H       
  68 H68            4.4095     9.8604    -3.7365 H       
@<TRIPOS>BOND
   1    1    2 2
   2    1    3 1
   3    1   41 1
   4    2   18 1
   5    2    5 1
   6    3    4 2
   7    3   12 1
   8    4    5 1
   9    4    6 1
  10    6    7 ar
  11    6    8 ar
  12    7   33 1
  13    7   11 ar
  14    8    9 ar
  15    8   42 1
  16    9   10 ar
  17    9   43 1
  18   10   11 ar
  19   10   34 1
  20   11   44 1
  21   12   13 ar
  22   12   14 ar
  23   13   17 ar
  24   13   45 1
  25   14   15 ar
  26   14   46 1
  27   15   16 ar
  28   15   47 1
  29   16   17 ar
  30   16   20 1
  31   17   48 1
  32   18   19 2
  33   18   21 am
  34   20   38 1
  35   21   22 1
  36   21   23 1
  37   22   26 1
  38   22   49 1
  39   22   50 1
  40   23   24 1
  41   23   51 1
  42   23   52 1
  43   24   25 1
  44   24   53 1
  45   24   54 1
  46   25   26 1
  47   25   27 1
  48   25   35 1
  49   26   55 1
  50   26   56 1
  51   27   28 ar
  52   27   32 ar
  53   28   29 ar
  54   28   57 1
  55   29   30 ar
  56   29   58 1
  57   30   31 ar
  58   30   59 1
  59   31   32 ar
  60   31   60 1
  61   32   61 1
  62   35   36 am
  63   35   37 2
  64   36   62 1
  65   36   63 1
  66   38   39 1
  67   38   64 1
  68   38   65 1
  69   39   40 1
  70   39   66 1
  71   39   67 1
  72   40   68 1

#	End of record

