#	Name: ASD00311308
#	Creating user name:	WinNT
#	Creation time:	15. 06. 2019 18:34

#	Modifying user name:	WinNT
#	Modification time:	15. 06. 2019 18:34

#	Program:	/corina/corina34_cracker 3.40 0067  02.08.2006

@<TRIPOS>MOLECULE
ASD00311308
  36   39    0    0    0
SMALL
NO_CHARGES


@<TRIPOS>ATOM
   1 C1            -0.0167     1.3779     0.0096 C.2     
   2 C2             0.0021    -0.0041     0.0020 C.2     
   3 C3             1.2589    -0.6766    -0.0136 C.2     
   4 C4             2.4315     0.0674    -0.0208 C.2     
   5 C5             2.3574     1.4753    -0.0126 C.2     
   6 N6             1.1648     2.0905     0.0022 N.am    
   7 C7            -1.3431    -0.5750     0.0126 C.2     
   8 C8            -2.3223     0.3256     0.0274 C.2     
   9 S9            -1.6794     1.9560     0.0358 S.3     
  10 O10            3.3823     2.1374    -0.0188 O.2     
  11 C11            3.7477    -0.6118    -0.0366 C.ar    
  12 C12            4.5934    -0.4744    -1.1371 C.ar    
  13 C13            5.8183    -1.1096    -1.1459 C.ar    
  14 C14            6.2079    -1.8820    -0.0662 C.ar    
  15 C15            5.3734    -2.0221     1.0283 C.ar    
  16 C16            4.1487    -1.3868     1.0515 C.ar    
  17 O17            1.3089    -2.0291    -0.0209 O.3     
  18 C18           -1.5955    -2.0355     0.0066 C.ar    
  19 C19           -1.2007    -2.8198     1.0924 C.ar    
  20 C20           -1.4397    -4.1808     1.0801 C.ar    
  21 C21           -2.0684    -4.7650    -0.0049 C.ar    
  22 C22           -2.4614    -3.9923    -1.0826 C.ar    
  23 C23           -2.2331    -2.6309    -1.0802 C.ar    
  24 F24           -0.5862    -2.2496     2.1519 F       
  25 H25            1.1326     3.0600     0.0073 H       
  26 H26           -3.3748     0.0837     0.0368 H       
  27 H27            4.2901     0.1278    -1.9808 H       
  28 H28            6.4741    -1.0039    -1.9974 H       
  29 H29            7.1673    -2.3778    -0.0780 H       
  30 H30            5.6829    -2.6267     1.8680 H       
  31 H31            3.5002    -1.4930     1.9085 H       
  32 H32            2.2062    -2.3894    -0.0315 H       
  33 H33           -1.1348    -4.7893     1.9186 H       
  34 H34           -2.2530    -5.8291    -0.0105 H       
  35 H35           -2.9518    -4.4547    -1.9265 H       
  36 H36           -2.5447    -2.0287    -1.9209 H       
@<TRIPOS>BOND
   1    1    2 2
   2    1    6 1
   3    1    9 1
   4    2    3 1
   5    2    7 1
   6    3    4 2
   7    3   17 1
   8    4    5 1
   9    4   11 1
  10    5    6 am
  11    5   10 2
  12    6   25 1
  13    7    8 2
  14    7   18 1
  15    8    9 1
  16    8   26 1
  17   11   12 ar
  18   11   16 ar
  19   12   13 ar
  20   12   27 1
  21   13   14 ar
  22   13   28 1
  23   14   15 ar
  24   14   29 1
  25   15   16 ar
  26   15   30 1
  27   16   31 1
  28   17   32 1
  29   18   19 ar
  30   18   23 ar
  31   19   20 ar
  32   19   24 1
  33   20   21 ar
  34   20   33 1
  35   21   22 ar
  36   21   34 1
  37   22   23 ar
  38   22   35 1
  39   23   36 1

#	End of record

