#	Name: ASD04590135
#	Creating user name:	WinNT
#	Creation time:	15. 06. 2019 20:50

#	Modifying user name:	WinNT
#	Modification time:	15. 06. 2019 20:50

#	Program:	/corina/corina34_cracker 3.40 0067  02.08.2006

@<TRIPOS>MOLECULE
ASD04590135
  45   47    0    0    0
SMALL
NO_CHARGES


@<TRIPOS>ATOM
   1 N1            -0.0153     1.2802     0.0091 N.pl3   
   2 N2             0.0021    -0.0041     0.0020 N.2     
   3 C3             1.2456    -0.4440    -0.0122 C.2     
   4 C4             2.0903     0.6961    -0.0142 C.2     
   5 C5             1.2523     1.7667    -0.0004 C.2     
   6 C6             1.6765    -1.8546    -0.0239 C.2     
   7 N7             0.7571    -2.8402    -0.0209 N.am    
   8 O8             2.8611    -2.1284    -0.0362 O.2     
   9 N9             3.4930     0.7146    -0.0271 N.am    
  10 C10            4.1514     1.8906    -0.0271 C.2     
  11 C11            6.3398     1.9132     1.1631 C.ar    
  12 C12            5.6253     1.9101    -0.0406 C.ar    
  13 C13            1.1851    -4.2412    -0.0325 C.3     
  14 C14            0.0893    -5.1161     0.5826 C.3     
  15 C15            0.5160    -6.5841     0.5123 C.3     
  16 N16            0.7412    -6.9632    -0.8884 N.3     
  17 C17            1.8218    -6.1687    -1.4863 C.3     
  18 C18            1.4341    -4.6882    -1.4757 C.3     
  19 C19            7.7205     1.9310     1.1425 C.ar    
  20 C20            8.3988     1.9459    -0.0661 C.ar    
  21 C21            7.6982     1.9429    -1.2620 C.ar    
  22 C22            6.3174     1.9252    -1.2573 C.ar    
  23 O23            3.5295     2.9357    -0.0159 O.2     
  24 F24            5.6802     1.9043     2.3422 F       
  25 F25            5.6362     1.9219    -2.4240 F       
  26 C26            1.0176    -8.4011    -1.0067 C.3     
  27 F27            9.7496     1.9637    -0.0785 F       
  28 H28           -0.8184     1.8242     0.0160 H       
  29 H29            1.5406     2.8075     0.0024 H       
  30 H30           -0.1879    -2.6218    -0.0111 H       
  31 H31            3.9890    -0.1189    -0.0359 H       
  32 H32            2.1029    -4.3465     0.5459 H       
  33 H33           -0.0626    -4.8307     1.6236 H       
  34 H34           -0.8391    -4.9800     0.0281 H       
  35 H35            1.4371    -6.7222     1.0785 H       
  36 H36           -0.2684    -7.2110     0.9366 H       
  37 H37            2.7368    -6.3086    -0.9107 H       
  38 H38            1.9859    -6.4937    -2.5137 H       
  39 H39            0.5268    -4.5454    -2.0626 H       
  40 H40            2.2430    -4.0972    -1.9053 H       
  41 H41            8.2731     1.9337     2.0704 H       
  42 H42            8.2336     1.9549    -2.1999 H       
  43 H43            0.1684    -8.9670    -0.6237 H       
  44 H44            1.1806    -8.6547    -2.0542 H       
  45 H45            1.9089    -8.6484    -0.4301 H       
@<TRIPOS>BOND
   1    1    2 1
   2    1    5 1
   3    1   28 1
   4    2    3 2
   5    3    4 1
   6    3    6 1
   7    4    5 2
   8    4    9 1
   9    5   29 1
  10    6    7 am
  11    6    8 2
  12    7   13 1
  13    7   30 1
  14    9   10 am
  15    9   31 1
  16   10   23 2
  17   10   12 1
  18   11   12 ar
  19   11   19 ar
  20   11   24 1
  21   12   22 ar
  22   13   14 1
  23   13   18 1
  24   13   32 1
  25   14   15 1
  26   14   33 1
  27   14   34 1
  28   15   16 1
  29   15   35 1
  30   15   36 1
  31   16   17 1
  32   16   26 1
  33   17   18 1
  34   17   37 1
  35   17   38 1
  36   18   39 1
  37   18   40 1
  38   19   20 ar
  39   19   41 1
  40   20   21 ar
  41   20   27 1
  42   21   22 ar
  43   21   42 1
  44   22   25 1
  45   26   43 1
  46   26   44 1
  47   26   45 1

#	End of record

