#	Name: ASD01812918
#	Creating user name:	WinNT
#	Creation time:	15. 06. 2019 19:29

#	Modifying user name:	WinNT
#	Modification time:	15. 06. 2019 19:29

#	Program:	/corina/corina34_cracker 3.40 0067  02.08.2006

@<TRIPOS>MOLECULE
ASD01812918
  47   50    0    0    0
SMALL
NO_CHARGES


@<TRIPOS>ATOM
   1 N1             0.0026     1.3185    -0.2218 N.ar    
   2 C2             0.0318     0.0058    -0.3455 C.ar    
   3 C3             1.2339    -0.6842    -0.3686 C.ar    
   4 C4             2.4113     0.0206    -0.2602 C.ar    
   5 C5             2.3614     1.4133    -0.1298 C.ar    
   6 C6             1.1073     2.0396    -0.1145 C.ar    
   7 C7             3.8682    -0.3579    -0.2457 C.3     
   8 N8             4.6152     0.8977    -0.1006 N.am    
   9 C9             3.7395     1.9164    -0.0343 C.2     
  10 C10            6.0737     1.0206    -0.0376 C.3     
  11 C11            6.6235     1.1965    -1.4297 C.ar    
  12 O12            1.0259     3.3855     0.0104 O.3     
  13 O13            4.0443     3.0872     0.0874 O.2     
  14 C14            6.7694     2.4661    -1.9559 C.ar    
  15 C15            7.2739     2.6344    -3.2328 C.ar    
  16 C16            7.6359     1.5157    -3.9895 C.ar    
  17 C17            7.4846     0.2370    -3.4488 C.ar    
  18 C18            6.9853     0.0856    -2.1728 C.ar    
  19 C19           -0.2022     3.9618    -0.0794 C.ar    
  20 C20           -1.0086     4.0611     1.0481 C.ar    
  21 C21           -2.2570     4.6482     0.9535 C.ar    
  22 C22           -0.6499     4.4564    -1.2947 C.ar    
  23 F23           -0.5735     3.5843     2.2349 F       
  24 C24           -2.7025     5.1356    -0.2626 C.ar    
  25 C25           -1.8985     5.0423    -1.3840 C.ar    
  26 Br26          -4.4104     5.9374    -0.3896 Br      
  27 O27            8.3050     2.8001    -5.8219 O.2     
  28 C28            8.1750     1.6855    -5.3540 C.2     
  29 N29            8.5227     0.6049    -6.0805 N.am    
  30 C30            9.0575     0.7734    -7.4339 C.3     
  31 F31            7.4161     3.8755    -3.7472 F       
  32 H32           -0.8960    -0.5406    -0.4296 H       
  33 H33            1.2465    -1.7594    -0.4699 H       
  34 H34            4.0758    -1.0171     0.5972 H       
  35 H35            4.1374    -0.8483    -1.1811 H       
  36 H36            6.3395     1.8856     0.5700 H       
  37 H37            6.4953     0.1199     0.4084 H       
  38 H38            6.4887     3.3283    -1.3692 H       
  39 H39            7.7621    -0.6315    -4.0277 H       
  40 H40            6.8720    -0.9030    -1.7529 H       
  41 H41           -2.8847     4.7261     1.8289 H       
  42 H42           -0.0231     4.3843    -2.1712 H       
  43 H43           -2.2487     5.4235    -2.3319 H       
  44 H44            8.4190    -0.2843    -5.7072 H       
  45 H45            8.3204     1.2822    -8.0551 H       
  46 H46            9.9702     1.3678    -7.3926 H       
  47 H47            9.2798    -0.2045    -7.8611 H       
@<TRIPOS>BOND
   1    1    2 ar
   2    1    6 ar
   3    2    3 ar
   4    2   32 1
   5    3    4 ar
   6    3   33 1
   7    4    7 1
   8    4    5 ar
   9    5    6 ar
  10    5    9 1
  11    6   12 1
  12    7    8 1
  13    7   34 1
  14    7   35 1
  15    8    9 am
  16    8   10 1
  17    9   13 2
  18   10   11 1
  19   10   36 1
  20   10   37 1
  21   11   14 ar
  22   11   18 ar
  23   12   19 1
  24   14   15 ar
  25   14   38 1
  26   15   16 ar
  27   15   31 1
  28   16   17 ar
  29   16   28 1
  30   17   18 ar
  31   17   39 1
  32   18   40 1
  33   19   20 ar
  34   19   22 ar
  35   20   23 1
  36   20   21 ar
  37   21   24 ar
  38   21   41 1
  39   22   25 ar
  40   22   42 1
  41   24   25 ar
  42   24   26 1
  43   25   43 1
  44   27   28 2
  45   28   29 am
  46   29   30 1
  47   29   44 1
  48   30   45 1
  49   30   46 1
  50   30   47 1

#	End of record

