#	Name: ASD01914062
#	Creating user name:	WinNT
#	Creation time:	15. 06. 2019 20:02

#	Modifying user name:	WinNT
#	Modification time:	15. 06. 2019 20:02

#	Program:	/corina/corina34_cracker 3.40 0067  02.08.2006

@<TRIPOS>MOLECULE
ASD01914062
  39   40    0    0    0
SMALL
NO_CHARGES


@<TRIPOS>ATOM
   1 C1            -0.0167     1.3784     0.0096 C.ar    
   2 C2             0.0021    -0.0041     0.0020 C.ar    
   3 C3             1.2074    -0.6814    -0.0131 C.ar    
   4 C4             2.3802     1.4093    -0.0131 C.ar    
   5 C5             1.1695     2.0865     0.0021 C.ar    
   6 O6             3.5484     2.1036    -0.0201 O.3     
   7 C7             4.7565     1.3405    -0.0357 C.3     
   8 C8             5.9399     2.2735    -0.0414 C.ar    
   9 N9             7.1606     1.7732    -0.0557 N.ar    
  10 C10            8.2282     2.5442    -0.0613 C.ar    
  11 C11            8.1003     3.9335    -0.0517 C.ar    
  12 C12            6.8174     4.4944    -0.0366 C.ar    
  13 C13            5.7285     3.6408    -0.0374 C.ar    
  14 C14            9.2990     4.7988    -0.0571 C.2     
  15 N15           10.5284     4.2469    -0.0712 N.am    
  16 O16            9.1757     6.0080    -0.0486 O.2     
  17 C17            2.3963     0.0221    -0.0207 C.ar    
  18 C18           12.9740     4.2333    -0.0929 C.3     
  19 C19           11.7163     5.1043    -0.0765 C.3     
  20 O20           13.0306     3.5014    -1.3189 O.3     
  21 C21           14.1736     2.6518    -1.4364 C.3     
  22 H22           -0.9595     1.9052     0.0169 H       
  23 H23           -0.9263    -0.5558     0.0083 H       
  24 H24            1.2194    -1.7613    -0.0187 H       
  25 H25            1.1543     3.1664     0.0077 H       
  26 H26            4.7976     0.7070     0.8504 H       
  27 H27            4.7810     0.7171    -0.9295 H       
  28 H28            9.2113     2.0972    -0.0730 H       
  29 H29            6.6813     5.5658    -0.0288 H       
  30 H30            4.7241     4.0376    -0.0259 H       
  31 H31           10.6268     3.2819    -0.0780 H       
  32 H32            3.3375    -0.5074    -0.0325 H       
  33 H33           13.8563     4.8675    -0.0072 H       
  34 H34           12.9445     3.5367     0.7450 H       
  35 H35           11.7023     5.7390    -0.9626 H       
  36 H36           11.7180     5.7282     0.8173 H       
  37 H37           14.1690     1.9225    -0.6264 H       
  38 H38           14.1428     2.1317    -2.3939 H       
  39 H39           15.0808     3.2532    -1.3787 H       
@<TRIPOS>BOND
   1    1    2 ar
   2    1    5 ar
   3    1   22 1
   4    2    3 ar
   5    2   23 1
   6    3   17 ar
   7    3   24 1
   8    4    5 ar
   9    4    6 1
  10    4   17 ar
  11    5   25 1
  12    6    7 1
  13    7    8 1
  14    7   26 1
  15    7   27 1
  16    8    9 ar
  17    8   13 ar
  18    9   10 ar
  19   10   11 ar
  20   10   28 1
  21   11   12 ar
  22   11   14 1
  23   12   13 ar
  24   12   29 1
  25   13   30 1
  26   14   15 am
  27   14   16 2
  28   15   19 1
  29   15   31 1
  30   17   32 1
  31   18   20 1
  32   18   19 1
  33   18   33 1
  34   18   34 1
  35   19   35 1
  36   19   36 1
  37   20   21 1
  38   21   37 1
  39   21   38 1
  40   21   39 1

#	End of record

