#	Name: ASD03093007
#	Creating user name:	WinNT
#	Creation time:	15. 06. 2019 20:33

#	Modifying user name:	WinNT
#	Modification time:	15. 06. 2019 20:33

#	Program:	/corina/corina34_cracker 3.40 0067  02.08.2006

@<TRIPOS>MOLECULE
ASD03093007
  57   61    0    0    0
SMALL
NO_CHARGES


@<TRIPOS>ATOM
   1 C1            -0.0167     1.3768     0.0096 C.ar    
   2 C2             0.0021    -0.0041     0.0020 C.ar    
   3 C3             1.2094    -0.6776    -0.0133 C.ar    
   4 C4             2.3942     0.0319    -0.0209 C.ar    
   5 C5             2.3775     1.4167    -0.0132 C.ar    
   6 C6             1.1705     2.0900     0.0021 C.ar    
   7 C7             3.5184     2.4115    -0.0183 C.3     
   8 C8             2.8834     3.7521    -0.4447 C.3     
   9 C9             1.4177     3.5834     0.0084 C.3     
  10 N10            3.5180     4.8738     0.2519 N.am    
  11 C11            3.4997     6.1049    -0.2964 C.2     
  12 C12            4.1525     7.2587     0.4202 C.3     
  13 O13            2.9578     6.2840    -1.3666 O.2     
  14 N14            3.9968     8.4788    -0.3757 N.am    
  15 N15            4.9743     8.8055    -1.3160 N.2     
  16 C16            4.9063     9.8700    -2.0587 C.2     
  17 C17            3.7707    10.7829    -1.9268 C.ar    
  18 C18            2.7645    10.4776    -0.9819 C.ar    
  19 C19            2.9092     9.2540    -0.1836 C.2     
  20 C20            5.9976    10.1642    -3.0554 C.3     
  21 C21            7.1168     9.1319    -2.9058 C.3     
  22 C22            8.2248     9.4306    -3.9177 C.3     
  23 C23            7.6531     9.3611    -5.3352 C.3     
  24 C24            6.5338    10.3934    -5.4849 C.3     
  25 C25            5.4259    10.0947    -4.4729 C.3     
  26 C26            3.6589    11.9372    -2.7042 C.ar    
  27 C27            2.5786    12.7591    -2.5436 C.ar    
  28 C28            1.5879    12.4626    -1.6163 C.ar    
  29 C29            1.6715    11.3308    -0.8354 C.ar    
  30 O30            2.0678     8.9490     0.6427 O.2     
  31 H31           -0.9602     1.9023     0.0169 H       
  32 H32           -0.9255    -0.5573     0.0084 H       
  33 H33            1.2259    -1.7574    -0.0189 H       
  34 H34            3.3369    -0.4950    -0.0326 H       
  35 H35            3.9496     2.4976     0.9791 H       
  36 H36            4.2809     2.1089    -0.7360 H       
  37 H37            2.9424     3.8824    -1.5253 H       
  38 H38            0.7459     4.0809    -0.6911 H       
  39 H39            1.2838     3.9847     1.0130 H       
  40 H40            3.9514     4.7305     1.1078 H       
  41 H41            3.6799     7.3966     1.3927 H       
  42 H42            5.2129     7.0477     0.5581 H       
  43 H43            6.3968    11.1619    -2.8732 H       
  44 H44            7.5241     9.1814    -1.8959 H       
  45 H45            6.7176     8.1341    -3.0880 H       
  46 H46            8.6240    10.4283    -3.7355 H       
  47 H47            9.0222     8.6951    -3.8111 H       
  48 H48            8.4425     9.5739    -6.0562 H       
  49 H49            7.2539     8.3633    -5.5175 H       
  50 H50            6.9331    11.3911    -5.3026 H       
  51 H51            6.1266    10.3439    -6.4947 H       
  52 H52            5.0267     9.0969    -4.6552 H       
  53 H53            4.6285    10.8302    -4.5795 H       
  54 H54            4.4223    12.1796    -3.4286 H       
  55 H55            2.4944    13.6517    -3.1459 H       
  56 H56            0.7433    13.1266    -1.5061 H       
  57 H57            0.8974    11.1062    -0.1166 H       
@<TRIPOS>BOND
   1    1    2 ar
   2    1    6 ar
   3    1   31 1
   4    2    3 ar
   5    2   32 1
   6    3    4 ar
   7    3   33 1
   8    4    5 ar
   9    4   34 1
  10    5    6 ar
  11    5    7 1
  12    6    9 1
  13    7    8 1
  14    7   35 1
  15    7   36 1
  16    8    9 1
  17    8   10 1
  18    8   37 1
  19    9   38 1
  20    9   39 1
  21   10   11 am
  22   10   40 1
  23   11   12 1
  24   11   13 2
  25   12   14 1
  26   12   41 1
  27   12   42 1
  28   14   15 1
  29   14   19 am
  30   15   16 2
  31   16   17 1
  32   16   20 1
  33   17   18 ar
  34   17   26 ar
  35   18   19 1
  36   18   29 ar
  37   19   30 2
  38   20   21 1
  39   20   25 1
  40   20   43 1
  41   21   22 1
  42   21   44 1
  43   21   45 1
  44   22   23 1
  45   22   46 1
  46   22   47 1
  47   23   24 1
  48   23   48 1
  49   23   49 1
  50   24   25 1
  51   24   50 1
  52   24   51 1
  53   25   52 1
  54   25   53 1
  55   26   27 ar
  56   26   54 1
  57   27   28 ar
  58   27   55 1
  59   28   29 ar
  60   28   56 1
  61   29   57 1

#	End of record

