#	Name: ASD01911595
#	Creating user name:	WinNT
#	Creation time:	15. 06. 2019 19:58

#	Modifying user name:	WinNT
#	Modification time:	15. 06. 2019 19:58

#	Program:	/corina/corina34_cracker 3.40 0067  02.08.2006

@<TRIPOS>MOLECULE
ASD01911595
  40   42    0    0    0
SMALL
NO_CHARGES


@<TRIPOS>ATOM
   1 N1             0.0338     1.1488    -0.6954 N.am    
   2 C2             0.0021    -0.0041     0.0020 C.2     
   3 C3            -1.2506    -0.7543     0.1205 C.2     
   4 C4            -1.3861    -2.1134     0.0310 C.2     
   5 S5            -2.8470    -0.0658     0.4110 S.3     
   6 C6            -3.5481    -1.6812     0.3766 C.2     
   7 N7            -2.6014    -2.5625     0.1688 N.2     
   8 C8            -4.9363    -1.9844     0.5538 C.1     
   9 C9            -6.0745    -2.2331     0.6990 C.1     
  10 C10           -7.4627    -2.5364     0.8762 C.ar    
  11 C11           -7.9037    -3.8626     0.8283 C.ar    
  12 C12           -9.2416    -4.1472     1.0001 C.ar    
  13 C13          -10.1484    -3.1232     1.2194 C.ar    
  14 C14           -9.7186    -1.8071     1.2681 C.ar    
  15 C15           -8.3829    -1.5082     1.1036 C.ar    
  16 O16            1.0143    -0.4219     0.5334 O.2     
  17 C17           -1.1463     1.6041    -1.4429 C.3     
  18 Cl18         -11.8314    -3.4908     1.4336 Cl      
  19 C19            1.2471     1.9771    -0.7177 C.3     
  20 C20            0.8787     3.4026    -0.2946 C.3     
  21 C21           -0.2517     3.9195    -1.1874 C.3     
  22 C22           -1.4824     3.0347    -1.0100 C.3     
  23 C23           -0.5988     5.3557    -0.7902 C.3     
  24 H24           -0.5445    -2.7678    -0.1420 H       
  25 H25           -7.1979    -4.6618     0.6567 H       
  26 H26           -9.5836    -5.1710     0.9634 H       
  27 H27          -10.4311    -1.0137     1.4390 H       
  28 H28           -8.0492    -0.4818     1.1418 H       
  29 H29           -0.9312     1.5867    -2.5113 H       
  30 H30           -1.9905     0.9492    -1.2273 H       
  31 H31            1.9815     1.5682    -0.0238 H       
  32 H32            1.6617     1.9908    -1.7257 H       
  33 H33            0.5494     3.4000     0.7445 H       
  34 H34            1.7496     4.0496    -0.3991 H       
  35 H35            0.0696     3.8985    -2.2288 H       
  36 H36           -2.2961     3.4151    -1.6275 H       
  37 H37           -1.7864     3.0399     0.0367 H       
  38 H38            0.2798     5.9890    -0.9129 H       
  39 H39           -1.4039     5.7240    -1.4260 H       
  40 H40           -0.9196     5.3772     0.2513 H       
@<TRIPOS>BOND
   1    1    2 am
   2    1   19 1
   3    1   17 1
   4    2    3 1
   5    2   16 2
   6    3    4 2
   7    3    5 1
   8    4    7 1
   9    4   24 1
  10    5    6 1
  11    6    7 2
  12    6    8 1
  13    8    9 3
  14    9   10 1
  15   10   11 ar
  16   10   15 ar
  17   11   12 ar
  18   11   25 1
  19   12   13 ar
  20   12   26 1
  21   13   14 ar
  22   13   18 1
  23   14   15 ar
  24   14   27 1
  25   15   28 1
  26   17   22 1
  27   17   29 1
  28   17   30 1
  29   19   20 1
  30   19   31 1
  31   19   32 1
  32   20   21 1
  33   20   33 1
  34   20   34 1
  35   21   22 1
  36   21   23 1
  37   21   35 1
  38   22   36 1
  39   22   37 1
  40   23   38 1
  41   23   39 1
  42   23   40 1

#	End of record

