#	Name: ASD01882274
#	Creating user name:	WinNT
#	Creation time:	15. 06. 2019 19:44

#	Modifying user name:	WinNT
#	Modification time:	15. 06. 2019 19:44

#	Program:	/corina/corina34_cracker 3.40 0067  02.08.2006

@<TRIPOS>MOLECULE
ASD01882274
  28   29    0    0    0
SMALL
NO_CHARGES


@<TRIPOS>ATOM
   1 N1            -0.0178     1.4608     0.0101 N.pl3   
   2 C2            -1.2983    -2.0661     0.5374 C.3     
   3 C3            -1.2933    -0.5375     0.6216 C.3     
   4 C4             0.0021    -0.0041     0.0020 C.3     
   5 C5             0.1099    -0.5071    -1.4408 C.3     
   6 C6             0.0507    -2.0369    -1.4453 C.3     
   7 O7            -1.1640    -2.4671    -0.8276 O.3     
   8 C8             1.1833     2.1762     0.0024 C.ar    
   9 C9             1.1660     3.5663     0.0101 C.ar    
  10 C10            2.3550     4.2702     0.0025 C.ar    
  11 C11            3.5615     3.5925    -0.0132 C.ar    
  12 C12            3.5811     2.2094    -0.0213 C.ar    
  13 C13            2.3957     1.4999    -0.0070 C.ar    
  14 Cl14          -0.3473     4.4166     0.0286 Cl      
  15 Br15           5.1866     4.5593    -0.0242 Br      
  16 H16           -0.8643     1.9343     0.0167 H       
  17 H17           -0.4657    -2.4648     1.1170 H       
  18 H18           -2.2368    -2.4491     0.9381 H       
  19 H19           -2.1488    -0.1398     0.0758 H       
  20 H20           -1.3512    -0.2300     1.6657 H       
  21 H21            0.8558    -0.3603     0.5786 H       
  22 H22           -0.7173    -0.1088    -2.0282 H       
  23 H23            1.0555    -0.1780    -1.8716 H       
  24 H24            0.0840    -2.3989    -2.4729 H       
  25 H25            0.9009    -2.4353    -0.8917 H       
  26 H26            2.3427     5.3501     0.0084 H       
  27 H27            4.5243     1.6835    -0.0342 H       
  28 H28            2.4121     0.4200    -0.0085 H       
@<TRIPOS>BOND
   1    1    4 1
   2    1    8 1
   3    1   16 1
   4    2    3 1
   5    2    7 1
   6    2   17 1
   7    2   18 1
   8    3    4 1
   9    3   19 1
  10    3   20 1
  11    4    5 1
  12    4   21 1
  13    5    6 1
  14    5   22 1
  15    5   23 1
  16    6    7 1
  17    6   24 1
  18    6   25 1
  19    8    9 ar
  20    8   13 ar
  21    9   10 ar
  22    9   14 1
  23   10   11 ar
  24   10   26 1
  25   11   12 ar
  26   11   15 1
  27   12   13 ar
  28   12   27 1
  29   13   28 1

#	End of record

