#	Name: ASD01230732
#	Creating user name:	WinNT
#	Creation time:	15. 06. 2019 19:14

#	Modifying user name:	WinNT
#	Modification time:	15. 06. 2019 19:14

#	Program:	/corina/corina34_cracker 3.40 0067  02.08.2006

@<TRIPOS>MOLECULE
ASD01230732
  48   50    0    0    0
SMALL
NO_CHARGES


@<TRIPOS>ATOM
   1 S1             0.0809     1.6331    -0.4876 S.o2    
   2 N2             0.0610    -0.0027    -0.2984 N.am    
   3 C3             1.0942    -0.7200    -0.0913 C.2     
   4 N4             2.3630    -0.2160     0.0463 N.pl3   
   5 C5             2.6145     1.1664     0.4243 C.3     
   6 C6             1.8313     2.1003    -0.5008 C.3     
   7 C7             0.9668    -2.2261     0.0255 C.3     
   8 N8             1.8545    -2.8860    -0.9305 N.3     
   9 C9             3.0150    -2.0965    -1.3321 C.3     
  10 C10            3.4688    -1.1511    -0.2168 C.3     
  11 C11            1.3408    -2.6575     1.4450 C.3     
  12 C12           -3.0770    -3.3700    -0.7698 C.ar    
  13 C13           -2.0760    -3.6424    -1.7035 C.ar    
  14 C14           -0.7708    -3.2705    -1.4404 C.ar    
  15 C15           -0.4577    -2.6296    -0.2557 C.ar    
  16 C16           -1.4465    -2.3577     0.6724 C.ar    
  17 C17           -2.7534    -2.7244     0.4214 C.ar    
  18 C18           -4.4811    -3.7606    -1.0477 C.ar    
  19 C19           -5.2107    -4.4708    -0.0964 C.ar    
  20 C20           -6.5165    -4.8316    -0.3603 C.ar    
  21 C21           -7.1010    -4.4895    -1.5663 C.ar    
  22 C22           -6.3812    -3.7850    -2.5144 C.ar    
  23 C23           -5.0768    -3.4136    -2.2587 C.ar    
  24 F24           -2.3817    -4.2685    -2.8609 F       
  25 O25           -0.4969     1.8407    -1.7691 O.2     
  26 O26           -0.5543     2.1251     0.6845 O.2     
  27 H27            2.2959     1.3249     1.4546 H       
  28 H28            3.6801     1.3787     0.3372 H       
  29 H29            2.2217     2.0183    -1.5152 H       
  30 H30            1.9358     3.1281    -0.1530 H       
  31 H31            2.1344    -3.7957    -0.5957 H       
  32 H32            3.8343    -2.7704    -1.5823 H       
  33 H33            2.7577    -1.5090    -2.2134 H       
  34 H34            4.3527    -0.5990    -0.5361 H       
  35 H35            3.6933    -1.7221     0.6842 H       
  36 H36            0.6706    -2.1785     2.1588 H       
  37 H37            1.2500    -3.7402     1.5315 H       
  38 H38            2.3683    -2.3610     1.6560 H       
  39 H39            0.0055    -3.4806    -2.1614 H       
  40 H40           -1.1955    -1.8572     1.5959 H       
  41 H41           -3.5240    -2.5108     1.1474 H       
  42 H42           -4.7552    -4.7387     0.8455 H       
  43 H43           -7.0828    -5.3824     0.3762 H       
  44 H44           -8.1231    -4.7739    -1.7687 H       
  45 H45           -6.8424    -3.5208    -3.4546 H       
  46 H46           -4.5173    -2.8593    -2.9977 H       
  47 Cl47           9.3527     8.1281     7.1588 Cl      
  48 H48            9.3527     9.4981     7.1588 H       
@<TRIPOS>BOND
   1    1    2 am
   2    1    6 1
   3    1   25 2
   4    1   26 2
   5    2    3 2
   6    3    4 1
   7    3    7 1
   8    4    5 1
   9    4   10 1
  10    5    6 1
  11    5   27 1
  12    5   28 1
  13    6   29 1
  14    6   30 1
  15    7    8 1
  16    7   11 1
  17    7   15 1
  18    8    9 1
  19    8   31 1
  20    9   10 1
  21    9   32 1
  22    9   33 1
  23   10   34 1
  24   10   35 1
  25   11   36 1
  26   11   37 1
  27   11   38 1
  28   12   13 ar
  29   12   17 ar
  30   12   18 1
  31   13   14 ar
  32   13   24 1
  33   14   15 ar
  34   14   39 1
  35   15   16 ar
  36   16   17 ar
  37   16   40 1
  38   17   41 1
  39   18   19 ar
  40   18   23 ar
  41   19   20 ar
  42   19   42 1
  43   20   21 ar
  44   20   43 1
  45   21   22 ar
  46   21   44 1
  47   22   23 ar
  48   22   45 1
  49   23   46 1
  50   47   48 1

#	End of record

