#	Name: ASD03331337
#	Creating user name:	WinNT
#	Creation time:	15. 06. 2019 20:39

#	Modifying user name:	WinNT
#	Modification time:	15. 06. 2019 20:39

#	Program:	/corina/corina34_cracker 3.40 0067  02.08.2006

@<TRIPOS>MOLECULE
ASD03331337
  60   62    0    0    0
SMALL
NO_CHARGES


@<TRIPOS>ATOM
   1 N1            -0.6776     0.9074     0.7048 N.am    
   2 N2            -0.6308    -0.2951     1.4259 N.2     
   3 C3             0.6319    -0.6391     1.5721 C.2     
   4 C4             1.4242     0.3386     0.9455 C.2     
   5 C5             2.9284     0.3839     0.8424 C.3     
   6 C6             3.3082     1.3809    -0.2593 C.3     
   7 C7             2.5601     2.6981    -0.0361 C.3     
   8 C8             1.0683     2.4947    -0.3276 C.3     
   9 C9             0.5983     1.2744     0.4240 C.2     
  10 C10           -1.7922     1.5763     0.3489 C.2     
  11 O11           -1.7043     2.6130    -0.2786 O.2     
  12 N12           -3.0044     1.0954     0.6893 N.am    
  13 N13            4.7559     1.6271    -0.2189 N.3     
  14 C14            5.2532     2.0593    -1.5318 C.3     
  15 C15           -5.3322     1.4817     1.2557 C.2     
  16 C16           -4.2159     1.8225     0.3025 C.3     
  17 C17           -4.6188     1.4230    -1.1184 C.3     
  18 C18           -4.8167    -0.0927    -1.1853 C.3     
  19 O19           -5.3431     0.4068     1.8173 O.2     
  20 N20           -6.3185     2.3714     1.4842 N.am    
  21 C21           -7.4636     1.9975     2.3181 C.3     
  22 C22           -5.9252     2.1250    -1.4946 C.3     
  23 C23           -3.5174     1.8371    -2.0963 C.3     
  24 C24            1.1309    -1.8466     2.2752 C.ar    
  25 C25            2.2322    -1.7555     3.1245 C.ar    
  26 C26            2.6929    -2.8824     3.7773 C.ar    
  27 C27            2.0604    -4.1030     3.5873 C.ar    
  28 C28            0.9664    -4.1961     2.7437 C.ar    
  29 C29            0.4962    -3.0734     2.0927 C.ar    
  30 F30            2.5135    -5.2034     4.2268 F       
  31 F31            3.7603    -2.7963     4.6010 F       
  32 H32            3.3519     0.7083     1.7929 H       
  33 H33            3.3089    -0.6056     0.5891 H       
  34 H34            3.0368     0.9691    -1.2313 H       
  35 H35            2.6880     3.0178     0.9981 H       
  36 H36            2.9602     3.4608    -0.7042 H       
  37 H37            0.5071     3.3685     0.0037 H       
  38 H38            0.9201     2.3466    -1.3973 H       
  39 H39           -3.0746     0.2678     1.1903 H       
  40 H40            4.9883     2.3007     0.4955 H       
  41 H41            6.3274     2.2346    -1.4737 H       
  42 H42            5.0511     1.2835    -2.2703 H       
  43 H43            4.7501     2.9805    -1.8257 H       
  44 H44           -4.0229     2.8947     0.3375 H       
  45 H45           -5.6014    -0.3877    -0.4886 H       
  46 H46           -5.1037    -0.3773    -2.1975 H       
  47 H47           -3.8861    -0.5928    -0.9173 H       
  48 H48           -6.2702     3.2592     1.0966 H       
  49 H49           -7.9758     1.1456     1.8710 H       
  50 H50           -7.1147     1.7293     3.3153 H       
  51 H51           -8.1522     2.8395     2.3883 H       
  52 H52           -5.7829     3.2048    -1.4512 H       
  53 H53           -6.2145     1.8369    -2.5052 H       
  54 H54           -6.7088     1.8334    -0.7953 H       
  55 H55           -2.5867     1.3370    -1.8283 H       
  56 H56           -3.8044     1.5524    -3.1086 H       
  57 H57           -3.3764     2.9169    -2.0487 H       
  58 H58            2.7247    -0.8057     3.2716 H       
  59 H59            0.4774    -5.1480     2.5981 H       
  60 H60           -0.3599    -3.1469     1.4385 H       
@<TRIPOS>BOND
   1    1    2 1
   2    1    9 1
   3    1   10 am
   4    2    3 2
   5    3    4 1
   6    3   24 1
   7    4    5 1
   8    4    9 2
   9    5    6 1
  10    5   32 1
  11    5   33 1
  12    6    7 1
  13    6   13 1
  14    6   34 1
  15    7    8 1
  16    7   35 1
  17    7   36 1
  18    8    9 1
  19    8   37 1
  20    8   38 1
  21   10   11 2
  22   10   12 am
  23   12   16 1
  24   12   39 1
  25   13   14 1
  26   13   40 1
  27   14   41 1
  28   14   42 1
  29   14   43 1
  30   15   19 2
  31   15   20 am
  32   15   16 1
  33   16   17 1
  34   16   44 1
  35   17   18 1
  36   17   22 1
  37   17   23 1
  38   18   45 1
  39   18   46 1
  40   18   47 1
  41   20   21 1
  42   20   48 1
  43   21   49 1
  44   21   50 1
  45   21   51 1
  46   22   52 1
  47   22   53 1
  48   22   54 1
  49   23   55 1
  50   23   56 1
  51   23   57 1
  52   24   25 ar
  53   24   29 ar
  54   25   26 ar
  55   25   58 1
  56   26   27 ar
  57   26   31 1
  58   27   28 ar
  59   27   30 1
  60   28   29 ar
  61   28   59 1
  62   29   60 1

#	End of record

