#	Name: ASD07930173
#	Creating user name:	WinNT
#	Creation time:	15. 06. 2019 21:11

#	Modifying user name:	WinNT
#	Modification time:	15. 06. 2019 21:11

#	Program:	/corina/corina34_cracker 3.40 0067  02.08.2006

@<TRIPOS>MOLECULE
ASD07930173
  58   62    0    0    0
SMALL
NO_CHARGES


@<TRIPOS>ATOM
   1 C1            -0.0180     1.4754     0.0102 C.2     
   2 C2             0.0021    -0.0041     0.0020 C.2     
   3 N3             1.1814     2.1509     0.0023 N.am    
   4 N4             1.1194    -0.6400     0.4288 N.am    
   5 C5             2.2493     0.1650     0.9143 C.3     
   6 C6             2.4261     1.3707    -0.0208 C.3     
   7 C7            -1.2008     2.1485     0.0195 C.2     
   8 C8            -1.2247     3.5486     0.0291 C.2     
   9 C9            -0.0458     4.2425     0.0303 C.2     
  10 C10            1.2139     3.4948     0.0143 C.2     
  11 O11           -0.9642    -0.6358    -0.3794 O.2     
  12 O12            2.2807     4.0852     0.0118 O.2     
  13 C13            1.2002    -2.1026     0.4064 C.3     
  14 C14            1.0276    -2.6010    -1.0298 C.3     
  15 O15           -0.2894    -2.2881    -1.4875 O.3     
  16 C16           -3.9121    -1.1514    -3.0822 C.3     
  17 C17           -4.5512    -2.1809    -4.0230 C.3     
  18 C18           -3.5556    -2.4908    -5.1436 C.3     
  19 C19           -2.1975    -2.7733    -4.5529 C.ar    
  20 C20           -1.2552    -3.4321    -5.3308 C.ar    
  21 C21            0.0017    -3.7058    -4.8238 C.ar    
  22 C22            0.3264    -3.3211    -3.5357 C.ar    
  23 C23           -0.6087    -2.6655    -2.7549 C.ar    
  24 C24           -1.8790    -2.3907    -3.2638 C.ar    
  25 O25           -2.7738    -1.7527    -2.4637 O.3     
  26 F26           -1.5682    -3.8083    -6.5900 F       
  27 F27           -3.5124    -0.0282    -3.8142 F       
  28 F28           -4.8354    -0.7718    -2.1020 F       
  29 C29            0.0936    -2.6880     1.2859 C.3     
  30 C30            0.4239     6.4402     1.0348 C.2     
  31 N31            0.2552     7.6848     0.6804 N.2     
  32 C32           -0.3161     7.7283    -0.5326 C.2     
  33 C33           -0.5113     6.4636    -0.9513 C.2     
  34 N34           -0.0431     5.6402     0.0404 N.pl3   
  35 C35           -0.6774     8.9771    -1.2948 C.3     
  36 H36            2.0426     0.5136     1.9261 H       
  37 H37            3.1572    -0.4381     0.9099 H       
  38 H38            2.6247     1.0242    -1.0350 H       
  39 H39            3.2543     1.9881     0.3270 H       
  40 H40           -2.1297     1.5976     0.0190 H       
  41 H41           -2.1668     4.0767     0.0353 H       
  42 H42            2.1717    -2.4186     0.7864 H       
  43 H43            1.7609    -2.1153    -1.6736 H       
  44 H44            1.1759    -3.6804    -1.0601 H       
  45 H45           -4.7779    -3.0927    -3.4705 H       
  46 H46           -5.4673    -1.7710    -4.4484 H       
  47 H47           -3.8970    -3.3629    -5.7012 H       
  48 H48           -3.4879    -1.6352    -5.8155 H       
  49 H49            0.7299    -4.2196    -5.4338 H       
  50 H50            1.3082    -3.5337    -3.1393 H       
  51 H51           -0.8779    -2.3720     0.9059 H       
  52 H52            0.1537    -3.7762     1.2692 H       
  53 H53            0.2165    -2.3329     2.3091 H       
  54 H54            0.8650     6.1025     1.9610 H       
  55 H55           -0.9521     6.1566    -1.8883 H       
  56 H56            0.1651     9.2797    -1.9167 H       
  57 H57           -1.5430     8.7793    -1.9270 H       
  58 H58           -0.9156     9.7756    -0.5921 H       
@<TRIPOS>BOND
   1    1    2 1
   2    1    3 1
   3    1    7 2
   4    2    4 am
   5    2   11 2
   6    3    6 1
   7    3   10 am
   8    4    5 1
   9    4   13 1
  10    5    6 1
  11    5   36 1
  12    5   37 1
  13    6   38 1
  14    6   39 1
  15    7    8 1
  16    7   40 1
  17    8    9 2
  18    8   41 1
  19    9   10 1
  20    9   34 1
  21   10   12 2
  22   13   14 1
  23   13   29 1
  24   13   42 1
  25   14   15 1
  26   14   43 1
  27   14   44 1
  28   15   23 1
  29   16   17 1
  30   16   25 1
  31   16   27 1
  32   16   28 1
  33   17   18 1
  34   17   45 1
  35   17   46 1
  36   18   19 1
  37   18   47 1
  38   18   48 1
  39   19   20 ar
  40   19   24 ar
  41   20   21 ar
  42   20   26 1
  43   21   22 ar
  44   21   49 1
  45   22   23 ar
  46   22   50 1
  47   23   24 ar
  48   24   25 1
  49   29   51 1
  50   29   52 1
  51   29   53 1
  52   30   31 2
  53   30   34 1
  54   30   54 1
  55   31   32 1
  56   32   33 2
  57   32   35 1
  58   33   34 1
  59   33   55 1
  60   35   56 1
  61   35   57 1
  62   35   58 1

#	End of record

