#	Name: ASD02560294
#	Creating user name:	WinNT
#	Creation time:	15. 06. 2019 20:25

#	Modifying user name:	WinNT
#	Modification time:	15. 06. 2019 20:25

#	Program:	/corina/corina34_cracker 3.40 0067  02.08.2006

@<TRIPOS>MOLECULE
ASD02560294
  36   38    0    0    0
SMALL
NO_CHARGES


@<TRIPOS>ATOM
   1 C1             0.0088     1.3240     0.2465 C.2     
   2 O2             0.0161    -0.0219     0.1304 O.3     
   3 C3            -1.2600    -0.4381     0.1159 C.2     
   4 N4            -2.0417     0.6087     0.2191 N.2     
   5 C5            -1.2737     1.7117     0.3063 C.2     
   6 N6            -1.6794    -1.7512     0.0094 N.pl3   
   7 C7             1.2174     2.2224     0.3044 C.3     
   8 C8            -3.0374    -2.0632     0.1271 C.ar    
   9 C9            -3.5616    -3.1562    -0.5511 C.ar    
  10 C10           -4.9032    -3.4619    -0.4330 C.ar    
  11 C11           -5.7252    -2.6803     0.3598 C.ar    
  12 C12           -5.2057    -1.5905     1.0362 C.ar    
  13 C13           -3.8635    -1.2840     0.9270 C.ar    
  14 Cl14          -7.4112    -3.0672     0.5055 Cl      
  15 C15            1.6433     2.3994     1.7391 C.ar    
  16 C16            2.5541     1.5245     2.3035 C.ar    
  17 C17            1.1279     3.4403     2.4905 C.ar    
  18 C18            1.5193     3.6023     3.8076 C.ar    
  19 C19            2.4251     2.7244     4.3727 C.ar    
  20 C20            2.9448     1.6876     3.6207 C.ar    
  21 Cl21          -0.0093     4.5433     1.7808 Cl      
  22 Cl22           3.2065     0.2219     1.3593 Cl      
  23 C23           -1.7676     3.1293     0.4385 C.3     
  24 H24           -1.0316    -2.4561    -0.1470 H       
  25 H25            2.0318     1.7728    -0.2636 H       
  26 H26            0.9690     3.1936    -0.1233 H       
  27 H27           -2.9207    -3.7661    -1.1704 H       
  28 H28           -5.3113    -4.3117    -0.9601 H       
  29 H29           -5.8495    -0.9819     1.6539 H       
  30 H30           -3.4586    -0.4334     1.4552 H       
  31 H31            1.1172     4.4151     4.3942 H       
  32 H32            2.7306     2.8515     5.4008 H       
  33 H33            3.6525     1.0019     4.0628 H       
  34 H34           -1.8732     3.3804     1.4939 H       
  35 H35           -1.0526     3.8080    -0.0266 H       
  36 H36           -2.7341     3.2250    -0.0562 H       
@<TRIPOS>BOND
   1    1    2 1
   2    1    7 1
   3    1    5 2
   4    2    3 1
   5    3    4 2
   6    3    6 1
   7    4    5 1
   8    5   23 1
   9    6    8 1
  10    6   24 1
  11    7   15 1
  12    7   25 1
  13    7   26 1
  14    8    9 ar
  15    8   13 ar
  16    9   10 ar
  17    9   27 1
  18   10   11 ar
  19   10   28 1
  20   11   12 ar
  21   11   14 1
  22   12   13 ar
  23   12   29 1
  24   13   30 1
  25   15   16 ar
  26   15   17 ar
  27   16   22 1
  28   16   20 ar
  29   17   18 ar
  30   17   21 1
  31   18   19 ar
  32   18   31 1
  33   19   20 ar
  34   19   32 1
  35   20   33 1
  36   23   34 1
  37   23   35 1
  38   23   36 1

#	End of record

