#	Name: ASD02500147
#	Creating user name:	WinNT
#	Creation time:	15. 06. 2019 20:22

#	Modifying user name:	WinNT
#	Modification time:	15. 06. 2019 20:22

#	Program:	/corina/corina34_cracker 3.40 0067  02.08.2006

@<TRIPOS>MOLECULE
ASD02500147
  62   66    0    0    0
SMALL
NO_CHARGES


@<TRIPOS>ATOM
   1 N1            -1.6497     0.2773     0.5837 N.am    
   2 C2            -1.2403    -0.5900    -0.5298 C.3     
   3 C3            -0.1813     0.1457    -1.3602 C.3     
   4 N4             0.8499     0.6659    -0.4515 N.am    
   5 C5             0.4405     1.5332     0.6621 C.3     
   6 C6            -0.6185     0.7976     1.4925 C.3     
   7 C7            -2.9471     0.5945     0.7650 C.2     
   8 O8            -3.2834     1.2488     1.7330 O.2     
   9 N9            -3.8715     0.1863    -0.1267 N.am    
  10 C10            2.1478     0.3529    -0.6358 C.2     
  11 C11            3.1820     0.9583     0.2247 C.ar    
  12 C12            4.3066     0.2158     0.5963 C.ar    
  13 C13            5.2695     0.7833     1.3990 C.ar    
  14 C14            5.1245     2.0954     1.8411 C.ar    
  15 C15            4.0054     2.8373     1.4732 C.ar    
  16 C16            3.0421     2.2775     0.6655 C.ar    
  17 O17            2.4664    -0.4285    -1.5113 O.2     
  18 S18            6.6890     4.1733     2.3025 S.o2    
  19 O19            5.5582     5.0101     2.1016 O.2     
  20 O20            7.6949     4.4448     3.2688 O.2     
  21 N21            6.0992     2.6660     2.6522 N.am    
  22 N22            9.2577     2.7402     1.6928 N.ar    
  23 C23           10.3805     2.0711     1.5924 C.ar    
  24 C24           11.0624     1.9604     0.3824 C.ar    
  25 C25           10.5622     2.5581    -0.7391 C.ar    
  26 C26            9.3560     3.2755    -0.6276 C.ar    
  27 C27            8.7814     3.9165    -1.7366 C.ar    
  28 C28            7.6137     4.6010    -1.5877 C.ar    
  29 C29            6.9803     4.6731    -0.3489 C.ar    
  30 C30            7.5099     4.0643     0.7471 C.ar    
  31 C31            8.7143     3.3486     0.6337 C.ar    
  32 C32           -5.2208     0.5006     0.0707 C.ar    
  33 C33           -6.2085    -0.3903    -0.3282 C.ar    
  34 C34           -7.5392    -0.0773    -0.1316 C.ar    
  35 C35           -7.8886     1.1218     0.4618 C.ar    
  36 C36           -6.9075     2.0112     0.8602 C.ar    
  37 C37           -5.5748     1.7017     0.6711 C.ar    
  38 H38           -0.8192    -1.5154    -0.1370 H       
  39 H39           -2.1043    -0.8148    -1.1552 H       
  40 H40            0.2721    -0.5459    -2.0703 H       
  41 H41           -0.6466     0.9723    -1.8970 H       
  42 H42            1.3045     1.7581     1.2875 H       
  43 H43            0.0194     2.4587     0.2693 H       
  44 H44           -1.0719     1.4891     2.2026 H       
  45 H45           -0.1532    -0.0291     2.0293 H       
  46 H46           -3.6016    -0.3255    -0.9053 H       
  47 H47            4.4195    -0.8023     0.2539 H       
  48 H48            6.1384     0.2100     1.6867 H       
  49 H49            3.8954     3.8547     1.8183 H       
  50 H50            2.1766     2.8552     0.3762 H       
  51 H51            6.4336     2.1811     3.4229 H       
  52 H52           10.7879     1.5932     2.4711 H       
  53 H53           11.9859     1.4027     0.3315 H       
  54 H54           11.0778     2.4829    -1.6851 H       
  55 H55            9.2630     3.8675    -2.7020 H       
  56 H56            7.1723     5.0938    -2.4413 H       
  57 H57            6.0552     5.2227    -0.2564 H       
  58 H58           -5.9362    -1.3269    -0.7921 H       
  59 H59           -8.3078    -0.7697    -0.4420 H       
  60 H60           -8.9299     1.3644     0.6142 H       
  61 H61           -7.1835     2.9469     1.3234 H       
  62 H62           -4.8089     2.3948     0.9865 H       
@<TRIPOS>BOND
   1    1    2 1
   2    1    6 1
   3    1    7 am
   4    2    3 1
   5    2   38 1
   6    2   39 1
   7    3    4 1
   8    3   40 1
   9    3   41 1
  10    4    5 1
  11    4   10 am
  12    5    6 1
  13    5   42 1
  14    5   43 1
  15    6   44 1
  16    6   45 1
  17    7    8 2
  18    7    9 am
  19    9   32 1
  20    9   46 1
  21   10   11 1
  22   10   17 2
  23   11   12 ar
  24   11   16 ar
  25   12   13 ar
  26   12   47 1
  27   13   14 ar
  28   13   48 1
  29   14   15 ar
  30   14   21 1
  31   15   16 ar
  32   15   49 1
  33   16   50 1
  34   18   19 2
  35   18   20 2
  36   18   21 am
  37   18   30 1
  38   21   51 1
  39   22   23 ar
  40   22   31 ar
  41   23   24 ar
  42   23   52 1
  43   24   25 ar
  44   24   53 1
  45   25   26 ar
  46   25   54 1
  47   26   27 ar
  48   26   31 ar
  49   27   28 ar
  50   27   55 1
  51   28   29 ar
  52   28   56 1
  53   29   30 ar
  54   29   57 1
  55   30   31 ar
  56   32   33 ar
  57   32   37 ar
  58   33   34 ar
  59   33   58 1
  60   34   35 ar
  61   34   59 1
  62   35   36 ar
  63   35   60 1
  64   36   37 ar
  65   36   61 1
  66   37   62 1

#	End of record

