#	Name: ASD03082267
#	Creating user name:	WinNT
#	Creation time:	15. 06. 2019 20:27

#	Modifying user name:	WinNT
#	Modification time:	15. 06. 2019 20:27

#	Program:	/corina/corina34_cracker 3.40 0067  02.08.2006

@<TRIPOS>MOLECULE
ASD03082267
  45   47    0    0    0
SMALL
NO_CHARGES


@<TRIPOS>ATOM
   1 N1            -0.0490     1.1679    -0.3462 N.am    
   2 N2             0.1463    -0.2140    -0.1893 N.2     
   3 C3             1.4052    -0.3893     0.1371 C.2     
   4 N4             2.0155     0.7974     0.1956 N.2     
   5 C5             1.1578     1.7543    -0.0925 C.2     
   6 N6             2.0104    -1.6206     0.3845 N.pl3   
   7 C7             1.2394    -2.7858     0.4089 C.ar    
   8 C8             1.8192    -4.0096     0.1026 C.ar    
   9 C9             1.0512    -5.1628     0.1279 C.ar    
  10 C10           -0.2950    -5.0921     0.4591 C.ar    
  11 C11           -0.8707    -3.8733     0.7632 C.ar    
  12 C12           -0.1072    -2.7220     0.7452 C.ar    
  13 O13            1.6156    -6.3622    -0.1718 O.3     
  14 C14            1.4490     3.2023    -0.1342 C.ar    
  15 C15           -1.1958     1.7898    -0.6850 C.2     
  16 C16            0.6642     4.1152     0.5784 C.ar    
  17 C17            0.9713     5.4585     0.5122 C.ar    
  18 N18            1.9881     5.8902    -0.2092 N.ar    
  19 C19            2.7570     5.0712    -0.8980 C.ar    
  20 C20            2.5265     3.7020    -0.8866 C.ar    
  21 N21           -2.2845     1.0652    -1.0106 N.am    
  22 N22            3.3420     2.8399    -1.6157 N.pl3   
  23 C23            4.4546     3.3756    -2.4040 C.3     
  24 C24           -3.5310     1.7412    -1.3788 C.3     
  25 O25           -1.2480     3.0037    -0.6967 O.2     
  26 C26            0.7645    -7.5092    -0.1258 C.3     
  27 F27           -0.2841    -7.3487    -1.0379 F       
  28 F28            1.5018    -8.6505    -0.4589 F       
  29 F29            0.2426    -7.6512     1.1644 F       
  30 H30            2.9667    -1.6685     0.5397 H       
  31 H31            2.8666    -4.0627    -0.1551 H       
  32 H32           -0.8934    -5.9909     0.4787 H       
  33 H33           -1.9184    -3.8212     1.0201 H       
  34 H34           -0.5584    -1.7713     0.9880 H       
  35 H35           -0.1707     3.7731     1.1720 H       
  36 H36            0.3693     6.1685     1.0597 H       
  37 H37            3.5785     5.4693    -1.4752 H       
  38 H38           -2.2428     0.0961    -1.0013 H       
  39 H39            3.1732     1.8848    -1.6017 H       
  40 H40            4.9747     2.5570    -2.9015 H       
  41 H41            4.0695     4.0690    -3.1516 H       
  42 H42            5.1474     3.8993    -1.7454 H       
  43 H43           -3.8667     2.3620    -0.5482 H       
  44 H44           -3.3598     2.3673    -2.2545 H       
  45 H45           -4.2939     0.9971    -1.6078 H       
@<TRIPOS>BOND
   1    1    2 1
   2    1    5 1
   3    1   15 am
   4    2    3 2
   5    3    4 1
   6    3    6 1
   7    4    5 2
   8    5   14 1
   9    6    7 1
  10    6   30 1
  11    7    8 ar
  12    7   12 ar
  13    8    9 ar
  14    8   31 1
  15    9   10 ar
  16    9   13 1
  17   10   11 ar
  18   10   32 1
  19   11   12 ar
  20   11   33 1
  21   12   34 1
  22   13   26 1
  23   14   16 ar
  24   14   20 ar
  25   15   21 am
  26   15   25 2
  27   16   17 ar
  28   16   35 1
  29   17   18 ar
  30   17   36 1
  31   18   19 ar
  32   19   20 ar
  33   19   37 1
  34   20   22 1
  35   21   24 1
  36   21   38 1
  37   22   23 1
  38   22   39 1
  39   23   40 1
  40   23   41 1
  41   23   42 1
  42   24   43 1
  43   24   44 1
  44   24   45 1
  45   26   27 1
  46   26   28 1
  47   26   29 1

#	End of record

