#	Name: ASD03731155
#	Creating user name:	WinNT
#	Creation time:	15. 06. 2019 20:45

#	Modifying user name:	WinNT
#	Modification time:	15. 06. 2019 20:45

#	Program:	/corina/corina34_cracker 3.40 0067  02.08.2006

@<TRIPOS>MOLECULE
ASD03731155
  68   73    0    0    0
SMALL
NO_CHARGES


@<TRIPOS>ATOM
   1 N1            -0.0178     1.4650     0.0101 N.am    
   2 C2             0.0021    -0.0041     0.0020 C.3     
   3 C3             0.8803    -0.4916     1.1586 C.3     
   4 C4             2.2627     0.1563     1.0525 C.3     
   5 C5             2.1248     1.6768     1.1584 C.3     
   6 C6             1.2607     2.1889     0.0018 C.3     
   7 C7            -1.1868     2.1359     0.0193 C.2     
   8 O8            -2.2375     1.5256     0.0210 O.2     
   9 O9            -1.1902     3.4822     0.0266 O.3     
  10 C10            3.1537    -0.3549     2.1863 C.3     
  11 C11            4.5704     0.1949     2.0092 C.3     
  12 O12            4.3030    -5.5404     6.3364 O.3     
  13 C13            4.8415    -6.3898     7.3667 C.3     
  14 O14            6.2531    -6.4174     7.0845 O.3     
  15 C15            6.5216    -5.2401     6.4467 C.ar    
  16 C16            5.3222    -4.7019     5.9860 C.ar    
  17 C17            7.7118    -4.5729     6.2190 C.ar    
  18 C18            7.7218    -3.3642     5.5293 C.ar    
  19 C19            6.5182    -2.8407     5.0668 C.ar    
  20 C20            5.3292    -3.5005     5.2975 C.ar    
  21 O21            8.7683    -2.5471     5.2172 O.3     
  22 C22            6.8550    -1.5619     4.3476 C.3     
  23 C23            8.3749    -1.6554     4.1563 C.3     
  24 N24            5.4236    -0.2946     3.0949 N.am    
  25 C25            6.1322    -1.4398     3.0371 C.2     
  26 C26            6.4636    -0.3452     5.1326 C.ar    
  27 C27            6.7850     0.1212     6.3877 C.ar    
  28 C28            6.2483     1.3125     6.8427 C.ar    
  29 C29            5.3880     2.0331     6.0342 C.ar    
  30 C30            5.0623     1.5695     4.7767 C.ar    
  31 C31            5.5981     0.3715     4.3103 C.ar    
  32 O32            6.1774    -2.2187     2.1084 O.2     
  33 C33           -2.4856     4.1381     0.0364 C.3     
  34 C34           -3.2605     3.7182     1.2870 C.3     
  35 C35           -2.2890     5.6554     0.0437 C.3     
  36 C36           -3.2723     3.7317    -1.2114 C.3     
  37 H37           -1.0118    -0.3840     0.1278 H       
  38 H38            0.4128    -0.3587    -0.9433 H       
  39 H39            0.4202    -0.2139     2.1069 H       
  40 H40            0.9816    -1.5757     1.1066 H       
  41 H41            2.7120    -0.1016     0.0934 H       
  42 H42            1.6530     1.9341     2.1067 H       
  43 H43            3.1119     2.1361     1.1062 H       
  44 H44            1.7740     2.0131    -0.9436 H       
  45 H45            1.0772     3.2560     0.1274 H       
  46 H46            2.7515    -0.0214     3.1430 H       
  47 H47            3.1813    -1.4443     2.1637 H       
  48 H48            4.9726    -0.1385     1.0525 H       
  49 H49            4.5428     1.2843     2.0318 H       
  50 H50            4.6562    -5.9616     8.3518 H       
  51 H51            4.4175    -7.3916     7.2976 H       
  52 H52            8.6395    -4.9927     6.5790 H       
  53 H53            4.4013    -3.0792     4.9399 H       
  54 H54            8.8414    -0.6780     4.2792 H       
  55 H55            8.6171    -2.0815     3.1827 H       
  56 H56            7.4568    -0.4432     7.0174 H       
  57 H57            6.5009     1.6791     7.8266 H       
  58 H58            4.9691     2.9629     6.3894 H       
  59 H59            4.3894     2.1375     4.1514 H       
  60 H60           -2.7000     4.0076     2.1759 H       
  61 H61           -4.2329     4.2105     1.2943 H       
  62 H62           -3.4005     2.6372     1.2818 H       
  63 H63           -1.7370     5.9545    -0.8473 H       
  64 H64           -3.2615     6.1477     0.0510 H       
  65 H65           -1.7286     5.9448     0.9326 H       
  66 H66           -3.4124     2.6508    -1.2166 H       
  67 H67           -4.2448     4.2241    -1.2041 H       
  68 H68           -2.7203     4.0309    -2.1024 H       
@<TRIPOS>BOND
   1    1    2 1
   2    1    6 1
   3    1    7 am
   4    2    3 1
   5    2   37 1
   6    2   38 1
   7    3    4 1
   8    3   39 1
   9    3   40 1
  10    4    5 1
  11    4   10 1
  12    4   41 1
  13    5    6 1
  14    5   42 1
  15    5   43 1
  16    6   44 1
  17    6   45 1
  18    7    8 2
  19    7    9 1
  20    9   33 1
  21   10   11 1
  22   10   46 1
  23   10   47 1
  24   11   24 1
  25   11   48 1
  26   11   49 1
  27   12   13 1
  28   12   16 1
  29   13   14 1
  30   13   50 1
  31   13   51 1
  32   14   15 1
  33   15   16 ar
  34   15   17 ar
  35   16   20 ar
  36   17   18 ar
  37   17   52 1
  38   18   19 ar
  39   18   21 1
  40   19   20 ar
  41   19   22 1
  42   20   53 1
  43   21   23 1
  44   22   23 1
  45   22   25 1
  46   22   26 1
  47   23   54 1
  48   23   55 1
  49   24   25 am
  50   24   31 1
  51   25   32 2
  52   26   27 ar
  53   26   31 ar
  54   27   28 ar
  55   27   56 1
  56   28   29 ar
  57   28   57 1
  58   29   30 ar
  59   29   58 1
  60   30   31 ar
  61   30   59 1
  62   33   34 1
  63   33   36 1
  64   33   35 1
  65   34   60 1
  66   34   61 1
  67   34   62 1
  68   35   63 1
  69   35   64 1
  70   35   65 1
  71   36   66 1
  72   36   67 1
  73   36   68 1

#	End of record

