#	Name: ASD01208451
#	Creating user name:	WinNT
#	Creation time:	15. 06. 2019 19:09

#	Modifying user name:	WinNT
#	Modification time:	15. 06. 2019 19:09

#	Program:	/corina/corina34_cracker 3.40 0067  02.08.2006

@<TRIPOS>MOLECULE
ASD01208451
  75   77    0    0    0
SMALL
NO_CHARGES


@<TRIPOS>ATOM
   1 N1             0.7525     1.7050    -1.2026 N.am    
   2 C2             0.7156     0.3291    -1.3384 C.2     
   3 C3             1.8894    -0.1802    -0.8220 C.2     
   4 C4             2.6513     0.8961    -0.3659 C.2     
   5 C5             1.9386     2.0487    -0.6069 C.2     
   6 C6            -0.2109     2.5624    -1.5942 C.2     
   7 O7            -1.1006     2.8679    -0.8263 O.2     
   8 O8            -0.1868     3.0797    -2.8362 O.3     
   9 C9            -0.3758    -0.4491    -1.9253 C.2     
  10 O10           -0.2925    -1.6610    -1.9898 O.2     
  11 O11           -1.4746     0.1775    -2.3950 O.3     
  12 C12            2.3770     3.4212    -0.2803 C.ar    
  13 C13            3.6562     3.6442     0.2324 C.ar    
  14 C14            4.0629     4.9322     0.5372 C.ar    
  15 C15            3.2010     6.0006     0.3342 C.ar    
  16 C16            1.9285     5.7837    -0.1747 C.ar    
  17 C17            1.5156     4.4992    -0.4887 C.ar    
  18 O18            1.0883     6.8335    -0.3711 O.3     
  19 C19            1.5492     8.0807    -0.0908 C.ar    
  20 C20            2.4003     8.7230    -0.9788 C.ar    
  21 C21            2.8675     9.9908    -0.6914 C.ar    
  22 C22            2.4878    10.6198     0.4799 C.ar    
  23 C23            1.6398     9.9820     1.3665 C.ar    
  24 C24            1.1652     8.7165     1.0812 C.ar    
  25 S25            3.0860    12.2367     0.8437 S.o2    
  26 O26            3.0485    12.3134     2.2621 O.2     
  27 O27            4.3163    12.3222     0.1378 O.2     
  28 C28            1.8542    13.3501     0.1132 C.3     
  29 O29            5.3080     5.1503     1.0364 O.3     
  30 C30            6.1107     3.9986     1.3036 C.3     
  31 C31            7.1568     4.3415     2.3662 C.3     
  32 C32            6.8146     3.5582     0.0185 C.3     
  33 O33            8.0600     5.3197     1.8473 O.3     
  34 C34            9.0823     5.7119     2.7655 C.3     
  35 C35           -2.5008    -0.6445    -2.9546 C.3     
  36 C36           -3.6576     0.2368    -3.4300 C.3     
  37 C37           -1.2562     3.9962    -3.1894 C.3     
  38 C38           -1.2312     5.1981    -2.2429 C.3     
  39 C39           -1.0616     4.4766    -4.6289 C.3     
  40 C40           -2.6027     3.2798    -3.0685 C.3     
  41 H41            2.1678    -1.2228    -0.7783 H       
  42 H42            3.6263     0.8356     0.0946 H       
  43 H43            4.3275     2.8132     0.3914 H       
  44 H44            3.5214     7.0039     0.5734 H       
  45 H45            0.5268     4.3317    -0.8897 H       
  46 H46            2.6975     8.2319    -1.8937 H       
  47 H47            3.5303    10.4909    -1.3821 H       
  48 H48            1.3450    10.4753     2.2809 H       
  49 H49            0.4993     8.2205     1.7719 H       
  50 H50            0.8814    13.1642     0.5682 H       
  51 H51            2.1477    14.3844     0.2926 H       
  52 H52            1.7936    13.1706    -0.9602 H       
  53 H53            5.4763     3.1897     1.6660 H       
  54 H54            6.6593     4.7393     3.2508 H       
  55 H55            7.7105     3.4418     2.6346 H       
  56 H56            7.4490     4.3671    -0.3438 H       
  57 H57            7.4269     2.6797     0.2224 H       
  58 H58            6.0694     3.3139    -0.7385 H       
  59 H59            9.7260     6.4561     2.2965 H       
  60 H60            8.6248     6.1381     3.6583 H       
  61 H61            9.6760     4.8406     3.0421 H       
  62 H62           -2.0985    -1.2031    -3.7997 H       
  63 H63           -2.8618    -1.3408    -2.1977 H       
  64 H64           -4.4404    -0.3902    -3.8569 H       
  65 H65           -4.0599     0.7954    -2.5849 H       
  66 H66           -3.2966     0.9331    -4.1870 H       
  67 H67           -0.2720     5.7085    -2.3290 H       
  68 H68           -2.0340     5.8861    -2.5079 H       
  69 H69           -1.3699     4.8558    -1.2173 H       
  70 H70           -1.0794     3.6204    -5.3032 H       
  71 H71           -1.8644     5.1647    -4.8940 H       
  72 H72           -0.1023     4.9871    -4.7150 H       
  73 H73           -2.7413     2.9375    -2.0429 H       
  74 H74           -3.4055     3.9678    -3.3336 H       
  75 H75           -2.6205     2.4236    -3.7428 H       
@<TRIPOS>BOND
   1    1    2 1
   2    1    5 1
   3    1    6 am
   4    2    3 2
   5    2    9 1
   6    3    4 1
   7    3   41 1
   8    4    5 2
   9    4   42 1
  10    5   12 1
  11    6    7 2
  12    6    8 1
  13    8   37 1
  14    9   10 2
  15    9   11 1
  16   11   35 1
  17   12   13 ar
  18   12   17 ar
  19   13   14 ar
  20   13   43 1
  21   14   15 ar
  22   14   29 1
  23   15   16 ar
  24   15   44 1
  25   16   17 ar
  26   16   18 1
  27   17   45 1
  28   18   19 1
  29   19   20 ar
  30   19   24 ar
  31   20   21 ar
  32   20   46 1
  33   21   22 ar
  34   21   47 1
  35   22   23 ar
  36   22   25 1
  37   23   24 ar
  38   23   48 1
  39   24   49 1
  40   25   26 2
  41   25   27 2
  42   25   28 1
  43   28   50 1
  44   28   51 1
  45   28   52 1
  46   29   30 1
  47   30   31 1
  48   30   32 1
  49   30   53 1
  50   31   33 1
  51   31   54 1
  52   31   55 1
  53   32   56 1
  54   32   57 1
  55   32   58 1
  56   33   34 1
  57   34   59 1
  58   34   60 1
  59   34   61 1
  60   35   36 1
  61   35   62 1
  62   35   63 1
  63   36   64 1
  64   36   65 1
  65   36   66 1
  66   37   38 1
  67   37   40 1
  68   37   39 1
  69   38   67 1
  70   38   68 1
  71   38   69 1
  72   39   70 1
  73   39   71 1
  74   39   72 1
  75   40   73 1
  76   40   74 1
  77   40   75 1

#	End of record

