#	Name: ASD05513027
#	Creating user name:	WinNT
#	Creation time:	15. 06. 2019 21:01

#	Modifying user name:	WinNT
#	Modification time:	15. 06. 2019 21:01

#	Program:	/corina/corina34_cracker 3.40 0067  02.08.2006

@<TRIPOS>MOLECULE
ASD05513027
  32   34    0    0    0
SMALL
NO_CHARGES


@<TRIPOS>ATOM
   1 C1            -0.0067     1.4283     0.3283 C.2     
   2 C2             0.0021    -0.0041     0.0020 C.2     
   3 C3             1.1834    -0.6674    -0.1155 C.2     
   4 C4             2.3846    -0.5240     0.7326 C.ar    
   5 C5             3.3416    -1.4130     0.2214 C.ar    
   6 N6             2.8099    -2.0856    -0.8744 N.am    
   7 C7             1.5462    -1.7001    -1.1213 C.2     
   8 C8             2.6810     0.2695     1.8397 C.ar    
   9 C9             3.9250     0.1773     2.4343 C.ar    
  10 C10            4.8709    -0.6993     1.9310 C.ar    
  11 C11            4.5864    -1.4898     0.8343 C.ar    
  12 O12            0.8317    -2.1146    -2.0125 O.2     
  13 O13            1.0366     2.0544     0.3476 O.2     
  14 C14           -1.2802     2.1086     0.6265 C.ar    
  15 Cl15           1.4933     1.3686     2.4681 Cl      
  16 C16           -1.2905     3.4732     0.9375 C.ar    
  17 C17           -2.4721     4.1004     1.2128 C.ar    
  18 C18           -3.6664     3.3834     1.1841 C.ar    
  19 C19           -3.6598     2.0248     0.8753 C.ar    
  20 C20           -2.4824     1.3926     0.5934 C.ar    
  21 N21           -4.8665     4.0246     1.4646 N.pl3   
  22 H22           -0.9296    -0.5303    -0.1446 H       
  23 H23            3.2890    -2.7517    -1.3918 H       
  24 H24            4.1596     0.7899     3.2923 H       
  25 H25            5.8414    -0.7656     2.4003 H       
  26 H26            5.3338    -2.1692     0.4519 H       
  27 H27           -0.3650     4.0295     0.9603 H       
  28 H28           -2.4807     5.1532     1.4532 H       
  29 H29           -4.5874     1.4720     0.8544 H       
  30 H30           -2.4781     0.3396     0.3537 H       
  31 H31           -4.8723     4.9703     1.6801 H       
  32 H32           -5.6986     3.5265     1.4450 H       
@<TRIPOS>BOND
   1    1    2 1
   2    1   13 2
   3    1   14 1
   4    2    3 2
   5    2   22 1
   6    3    4 1
   7    3    7 1
   8    4    5 ar
   9    4    8 ar
  10    5    6 1
  11    5   11 ar
  12    6    7 am
  13    6   23 1
  14    7   12 2
  15    8    9 ar
  16    8   15 1
  17    9   10 ar
  18    9   24 1
  19   10   11 ar
  20   10   25 1
  21   11   26 1
  22   14   16 ar
  23   14   20 ar
  24   16   17 ar
  25   16   27 1
  26   17   18 ar
  27   17   28 1
  28   18   19 ar
  29   18   21 1
  30   19   20 ar
  31   19   29 1
  32   20   30 1
  33   21   31 1
  34   21   32 1

#	End of record

