#	Name: ASD03092727
#	Creating user name:	WinNT
#	Creation time:	15. 06. 2019 20:33

#	Modifying user name:	WinNT
#	Modification time:	15. 06. 2019 20:33

#	Program:	/corina/corina34_cracker 3.40 0067  02.08.2006

@<TRIPOS>MOLECULE
ASD03092727
  53   55    0    0    0
SMALL
NO_CHARGES


@<TRIPOS>ATOM
   1 C1             0.0249     1.1858     0.0030 C.2     
   2 O2            -0.6775     1.1955     0.9958 O.2     
   3 C3             2.5229     1.2868     0.1078 C.ar    
   4 C4             1.2862     1.9475    -0.0146 C.ar    
   5 C5             1.2747     3.3388    -0.1537 C.ar    
   6 C6             2.4962     4.0113    -0.1648 C.ar    
   7 C7             3.6779     3.2813    -0.0380 C.ar    
   8 N8             3.6569     1.9706     0.0916 N.ar    
   9 C9             2.5385     5.4874    -0.3104 C.ar    
  10 C10            3.7619     6.1543    -0.3208 C.ar    
  11 C11            3.7953     7.5273    -0.4564 C.ar    
  12 C12            2.6173     8.2414    -0.5819 C.ar    
  13 C13            1.4000     7.5845    -0.5722 C.ar    
  14 C14            1.3551     6.2111    -0.4429 C.ar    
  15 C15            2.6601     9.7405    -0.7292 C.3     
  16 C16            2.7408    10.1051    -2.2129 C.3     
  17 C17            2.7843    11.6271    -2.3625 C.3     
  18 N18            2.5539    -0.0869     0.2518 N.pl3   
  19 C19            3.8373    -0.7932     0.2658 C.3     
  20 C20            3.5918    -2.2937     0.4364 C.3     
  21 C21            4.9322    -3.0313     0.4509 C.3     
  22 C22           -0.3833     0.4058    -1.1827 C.ar    
  23 C23           -1.5153    -0.4116    -1.1287 C.ar    
  24 C24           -1.8915    -1.1373    -2.2382 C.ar    
  25 C25           -1.1489    -1.0574    -3.4068 C.ar    
  26 C26           -0.0245    -0.2478    -3.4661 C.ar    
  27 C27            0.3577     0.4867    -2.3645 C.ar    
  28 F28           -1.5221    -1.7714    -4.4913 F       
  29 H29            0.3441     3.8783    -0.2504 H       
  30 H30            4.6257     3.7990    -0.0465 H       
  31 H31            4.6822     5.5978    -0.2225 H       
  32 H32            4.7430     8.0453    -0.4643 H       
  33 H33            0.4832     8.1469    -0.6702 H       
  34 H34            0.4044     5.6987    -0.4403 H       
  35 H35            1.7582    10.1740    -0.2971 H       
  36 H36            3.5356    10.1317    -0.2108 H       
  37 H37            3.6427     9.6716    -2.6451 H       
  38 H38            1.8654     9.7140    -2.7313 H       
  39 H39            1.8824    12.0606    -1.9304 H       
  40 H40            3.6598    12.0183    -1.8441 H       
  41 H41            2.8418    11.8869    -3.4195 H       
  42 H42            1.7258    -0.5837     0.3438 H       
  43 H43            4.3602    -0.6151    -0.6739 H       
  44 H44            4.4441    -0.4278     1.0942 H       
  45 H45            3.0689    -2.4718     1.3760 H       
  46 H46            2.9850    -2.6591    -0.3921 H       
  47 H47            4.7573    -4.1003     0.5725 H       
  48 H48            5.4551    -2.8532    -0.4887 H       
  49 H49            5.5390    -2.6659     1.2794 H       
  50 H50           -2.0941    -0.4748    -0.2191 H       
  51 H51           -2.7661    -1.7696    -2.1976 H       
  52 H52            0.5501    -0.1894    -4.3787 H       
  53 H53            1.2310     1.1204    -2.4132 H       
@<TRIPOS>BOND
   1    1    2 2
   2    1    4 1
   3    1   22 1
   4    3    4 ar
   5    3    8 ar
   6    3   18 1
   7    4    5 ar
   8    5    6 ar
   9    5   29 1
  10    6    7 ar
  11    6    9 1
  12    7    8 ar
  13    7   30 1
  14    9   10 ar
  15    9   14 ar
  16   10   11 ar
  17   10   31 1
  18   11   12 ar
  19   11   32 1
  20   12   13 ar
  21   12   15 1
  22   13   14 ar
  23   13   33 1
  24   14   34 1
  25   15   16 1
  26   15   35 1
  27   15   36 1
  28   16   17 1
  29   16   37 1
  30   16   38 1
  31   17   39 1
  32   17   40 1
  33   17   41 1
  34   18   19 1
  35   18   42 1
  36   19   20 1
  37   19   43 1
  38   19   44 1
  39   20   21 1
  40   20   45 1
  41   20   46 1
  42   21   47 1
  43   21   48 1
  44   21   49 1
  45   22   23 ar
  46   22   27 ar
  47   23   24 ar
  48   23   50 1
  49   24   25 ar
  50   24   51 1
  51   25   26 ar
  52   25   28 1
  53   26   27 ar
  54   26   52 1
  55   27   53 1

#	End of record

