#	Name: ASD01152209
#	Creating user name:	WinNT
#	Creation time:	15. 06. 2019 19:05

#	Modifying user name:	WinNT
#	Modification time:	15. 06. 2019 19:05

#	Program:	/corina/corina34_cracker 3.40 0067  02.08.2006

@<TRIPOS>MOLECULE
ASD01152209
  44   47    0    0    0
SMALL
NO_CHARGES


@<TRIPOS>ATOM
   1 C1             1.5895     4.3572     2.2189 C.2     
   2 C2             2.6670     4.6101     3.2417 C.3     
   3 O3             1.5055     3.2729     1.6820 O.2     
   4 N4             0.7158     5.3341     1.9049 N.am    
   5 C5            -0.2105     5.1396     0.8743 C.ar    
   6 C6            -1.4660     5.7258     0.9491 C.ar    
   7 C7            -2.3815     5.5309    -0.0752 C.ar    
   8 C8            -2.0386     4.7498    -1.1722 C.ar    
   9 C9            -0.7879     4.1677    -1.2435 C.ar    
  10 C10            0.1279     4.3643    -0.2275 C.ar    
  11 N11           -4.7881     5.3370    -0.2258 N.2     
  12 N12           -3.6491     6.1199    -0.0034 N.am    
  13 C13           -3.7566     7.4304     0.2787 C.2     
  14 N14           -4.9610     8.0270     0.3554 N.am    
  15 C15           -6.0845     7.3095     0.1481 C.2     
  16 C16           -5.9728     5.8801    -0.1598 C.2     
  17 O17           -7.1770     7.8417     0.2161 O.2     
  18 O18           -2.7505     8.0866     0.4677 O.2     
  19 C19           -5.0517     9.4561     0.6647 C.3     
  20 O20           -4.6755    12.4290    -4.0916 O.3     
  21 C21           -3.2724    12.2115    -4.3308 C.3     
  22 O22           -2.7412    11.9335    -3.0217 O.3     
  23 C23           -3.7802    11.4050    -2.3115 C.ar    
  24 C24           -4.9697    11.7097    -2.9695 C.ar    
  25 C25           -6.1772    11.2807    -2.4438 C.ar    
  26 C26           -6.2006    10.5522    -1.2687 C.ar    
  27 C27           -5.0205    10.2501    -0.6158 C.ar    
  28 C28           -3.8113    10.6754    -1.1346 C.ar    
  29 F29           -3.0826    11.1167    -5.1809 F       
  30 F30           -2.6813    13.3604    -4.8673 F       
  31 Br31          -7.5232     4.8390    -0.4571 Br      
  32 H32            3.2689     3.7098     3.3656 H       
  33 H33            3.3030     5.4287     2.9046 H       
  34 H34            2.2086     4.8748     4.1945 H       
  35 H35            0.7290     6.1721     2.3933 H       
  36 H36           -1.7302     6.3321     1.8029 H       
  37 H37           -2.7508     4.5973    -1.9697 H       
  38 H38           -0.5239     3.5608    -2.0969 H       
  39 H39            1.1065     3.9115    -0.2883 H       
  40 H40           -5.9841     9.6550     1.1930 H       
  41 H41           -4.2093     9.7461     1.2927 H       
  42 H42           -7.1009    11.5157    -2.9517 H       
  43 H43           -7.1431    10.2188    -0.8601 H       
  44 H44           -2.8907    10.4378    -0.6223 H       
@<TRIPOS>BOND
   1    1    2 1
   2    1    3 2
   3    1    4 am
   4    2   32 1
   5    2   33 1
   6    2   34 1
   7    4    5 1
   8    4   35 1
   9    5    6 ar
  10    5   10 ar
  11    6    7 ar
  12    6   36 1
  13    7    8 ar
  14    7   12 1
  15    8    9 ar
  16    8   37 1
  17    9   10 ar
  18    9   38 1
  19   10   39 1
  20   11   12 1
  21   11   16 2
  22   12   13 am
  23   13   14 am
  24   13   18 2
  25   14   15 am
  26   14   19 1
  27   15   16 1
  28   15   17 2
  29   16   31 1
  30   19   27 1
  31   19   40 1
  32   19   41 1
  33   20   21 1
  34   20   24 1
  35   21   22 1
  36   21   29 1
  37   21   30 1
  38   22   23 1
  39   23   24 ar
  40   23   28 ar
  41   24   25 ar
  42   25   26 ar
  43   25   42 1
  44   26   27 ar
  45   26   43 1
  46   27   28 ar
  47   28   44 1

#	End of record

