#	Name: ASD02198823
#	Creating user name:	WinNT
#	Creation time:	15. 06. 2019 20:20

#	Modifying user name:	WinNT
#	Modification time:	15. 06. 2019 20:20

#	Program:	/corina/corina34_cracker 3.40 0067  02.08.2006

@<TRIPOS>MOLECULE
ASD02198823
  45   49    0    0    0
SMALL
NO_CHARGES


@<TRIPOS>ATOM
   1 Cl1            2.4442    -1.4902     2.7197 Cl      
   2 C2            -0.0433     1.5018    -0.1149 C.2     
   3 C3            -0.0731     0.1621     0.0976 C.2     
   4 N4             1.0713    -0.5396     0.2599 N.pl3   
   5 N5             2.2358    -0.0049     0.2262 N.2     
   6 C6             2.4075     1.2845     0.0281 C.2     
   7 C7             1.2217     2.1357    -0.1604 C.2     
   8 C8             0.9798    -1.9185     0.4759 C.ar    
   9 C9             1.5799    -2.4890     1.5931 C.ar    
  10 C10            1.4885    -3.8506     1.8057 C.ar    
  11 C11            0.7975    -4.6491     0.9040 C.ar    
  12 C12            0.1984    -4.0791    -0.2123 C.ar    
  13 C13            0.2842    -2.7182    -0.4228 C.ar    
  14 C14            3.7645     1.8667    -0.0041 C.2     
  15 N15            4.3067     2.6067    -1.0170 N.pl3   
  16 N16            5.6087     2.9579    -0.6391 N.2     
  17 C17            5.8522     2.4580     0.5462 C.2     
  18 C18            4.7199     1.7710     0.9838 C.2     
  19 C19            3.6739     2.9517    -2.2181 C.ar    
  20 C20            3.8080     4.2350    -2.7316 C.ar    
  21 C21            3.1828     4.5721    -3.9160 C.ar    
  22 C22            2.4238     3.6333    -4.5904 C.ar    
  23 C23            2.2883     2.3546    -4.0817 C.ar    
  24 C24            2.9157     2.0096    -2.9007 C.ar    
  25 O25            1.3247     3.3388    -0.3482 O.2     
  26 N26            0.7049    -6.0309     1.1199 N.pl3   
  27 N27            1.2575    -6.7360     2.1969 N.2     
  28 C28            0.9602    -8.0024     2.0526 C.2     
  29 C29            0.2096    -8.1454     0.8805 C.2     
  30 C30            0.0614    -6.9187     0.3285 C.2     
  31 H31           -0.9546     2.0655    -0.2494 H       
  32 H32           -1.0229    -0.3503     0.1379 H       
  33 H33            1.9547    -4.2942     2.6730 H       
  34 H34           -0.3385    -4.7009    -0.9134 H       
  35 H35           -0.1821    -2.2756    -1.2906 H       
  36 H36            6.7758     2.5636     1.0959 H       
  37 H37            4.6137     1.2517     1.9248 H       
  38 H38            4.4004     4.9687    -2.2051 H       
  39 H39            3.2864     5.5700    -4.3157 H       
  40 H40            1.9355     3.8995    -5.5163 H       
  41 H41            1.6945     1.6238    -4.6106 H       
  42 H42            2.8095     1.0108    -2.5039 H       
  43 H43            1.2453    -8.7999     2.7229 H       
  44 H44           -0.1851    -9.0707     0.4877 H       
  45 H45           -0.4695    -6.6907    -0.5839 H       
@<TRIPOS>BOND
   1    1    9 1
   2    2    3 2
   3    2    7 1
   4    2   31 1
   5    3    4 1
   6    3   32 1
   7    4    5 1
   8    4    8 1
   9    5    6 2
  10    6    7 1
  11    6   14 1
  12    7   25 2
  13    8    9 ar
  14    8   13 ar
  15    9   10 ar
  16   10   11 ar
  17   10   33 1
  18   11   12 ar
  19   11   26 1
  20   12   13 ar
  21   12   34 1
  22   13   35 1
  23   14   15 1
  24   14   18 2
  25   15   16 1
  26   15   19 1
  27   16   17 2
  28   17   18 1
  29   17   36 1
  30   18   37 1
  31   19   20 ar
  32   19   24 ar
  33   20   21 ar
  34   20   38 1
  35   21   22 ar
  36   21   39 1
  37   22   23 ar
  38   22   40 1
  39   23   24 ar
  40   23   41 1
  41   24   42 1
  42   26   27 1
  43   26   30 1
  44   27   28 2
  45   28   29 1
  46   28   43 1
  47   29   30 2
  48   29   44 1
  49   30   45 1

#	End of record

