#	Name: ASD01028486
#	Creating user name:	WinNT
#	Creation time:	15. 06. 2019 18:57

#	Modifying user name:	WinNT
#	Modification time:	15. 06. 2019 18:57

#	Program:	/corina/corina34_cracker 3.40 0067  02.08.2006

@<TRIPOS>MOLECULE
ASD01028486
  52   57    0    0    0
SMALL
NO_CHARGES


@<TRIPOS>ATOM
   1 C1            -0.0171     1.4121     0.0098 C.ar    
   2 C2             0.0021    -0.0041     0.0020 C.ar    
   3 C3             1.2106     2.1118     0.0018 C.ar    
   4 C4             2.3793     1.3716    -0.0133 C.ar    
   5 C5             2.3160    -0.0161    -0.0202 C.ar    
   6 N6             1.1705    -0.6564    -0.0123 N.ar    
   7 O7             1.2422     3.4673     0.0084 O.3     
   8 C8             2.5302     4.0862    -0.0005 C.3     
   9 C9             2.3676     5.5844     0.0086 C.2     
  10 N10            2.2911     6.3791     1.1110 N.pl3   
  11 C11            2.1478     7.6614     0.6410 C.2     
  12 N12            2.1442     7.5867    -0.6802 N.2     
  13 N13            2.2800     6.3594    -1.0415 N.2     
  14 C14            2.3298     6.1321     2.4507 C.2     
  15 C15            2.2266     7.1550     3.3424 C.2     
  16 C16            2.0782     8.4850     2.8826 C.2     
  17 C17            2.0393     8.7341     1.5484 C.2     
  18 C18           -1.2149    -0.7042     0.0100 C.ar    
  19 C19           -2.4012    -0.0062     0.0251 C.ar    
  20 C20           -2.4084     1.3917     0.0326 C.ar    
  21 C21           -1.2427     2.0939     0.0310 C.ar    
  22 O22           -3.5785    -0.6836     0.0324 O.3     
  23 C23           -4.7757     0.0965     0.0481 C.3     
  24 C24            2.2694     6.8752     4.7990 C.ar    
  25 C25            3.4277     6.3636     5.3811 C.ar    
  26 C26            3.4681     6.1036     6.7331 C.ar    
  27 C27            2.3510     6.3499     7.5305 C.ar    
  28 C28            1.1989     6.8609     6.9428 C.ar    
  29 C29            1.1521     7.1280     5.5956 C.ar    
  30 N30            2.1535     6.1697     8.8999 N.am    
  31 C31            0.9194     6.5315     9.2885 C.2     
  32 C32            0.1863     7.0132     8.0547 C.3     
  33 O33            0.4759     6.4819    10.4163 O.2     
  34 H34            3.3371     1.8706    -0.0202 H       
  35 H35            3.2348    -0.5836    -0.0325 H       
  36 H36            3.0885     3.7759     0.8827 H       
  37 H37            3.0719     3.7850    -0.8972 H       
  38 H38            2.4425     5.1187     2.8067 H       
  39 H39            1.9959     9.2977     3.5892 H       
  40 H40            1.9267     9.7452     1.1859 H       
  41 H41           -1.2202    -1.7841     0.0039 H       
  42 H42           -3.3500     1.9205     0.0441 H       
  43 H43           -1.2613     3.1737     0.0368 H       
  44 H44           -4.7912     0.7203     0.9418 H       
  45 H45           -4.8080     0.7304    -0.8380 H       
  46 H46           -5.6412    -0.5662     0.0525 H       
  47 H47            4.2967     6.1699     4.7698 H       
  48 H48            4.3689     5.7068     7.1775 H       
  49 H49            0.2503     7.5249     5.1533 H       
  50 H50            2.8298     5.8225     9.5024 H       
  51 H51           -0.1039     8.0579     8.1665 H       
  52 H52           -0.6881     6.3914     7.8628 H       
@<TRIPOS>BOND
   1    1    2 ar
   2    1    3 ar
   3    1   21 ar
   4    2   18 ar
   5    2    6 ar
   6    3    4 ar
   7    3    7 1
   8    4    5 ar
   9    4   34 1
  10    5    6 ar
  11    5   35 1
  12    7    8 1
  13    8    9 1
  14    8   36 1
  15    8   37 1
  16    9   10 1
  17    9   13 2
  18   10   11 1
  19   10   14 1
  20   11   12 2
  21   11   17 1
  22   12   13 1
  23   14   15 2
  24   14   38 1
  25   15   16 1
  26   15   24 1
  27   16   17 2
  28   16   39 1
  29   17   40 1
  30   18   19 ar
  31   18   41 1
  32   19   20 ar
  33   19   22 1
  34   20   21 ar
  35   20   42 1
  36   21   43 1
  37   22   23 1
  38   23   44 1
  39   23   45 1
  40   23   46 1
  41   24   25 ar
  42   24   29 ar
  43   25   26 ar
  44   25   47 1
  45   26   27 ar
  46   26   48 1
  47   27   28 ar
  48   27   30 1
  49   28   29 ar
  50   28   32 1
  51   29   49 1
  52   30   31 am
  53   30   50 1
  54   31   32 1
  55   31   33 2
  56   32   51 1
  57   32   52 1

#	End of record

