#	Name: ASD03092392
#	Creating user name:	WinNT
#	Creation time:	15. 06. 2019 20:32

#	Modifying user name:	WinNT
#	Modification time:	15. 06. 2019 20:32

#	Program:	/corina/corina34_cracker 3.40 0067  02.08.2006

@<TRIPOS>MOLECULE
ASD03092392
  58   61    0    0    0
SMALL
NO_CHARGES


@<TRIPOS>ATOM
   1 O1            -0.1845     1.2027     0.0440 O.3     
   2 N2            -0.1398    -0.0055     0.0309 N.2     
   3 C3             1.0961    -0.4386     0.0058 C.2     
   4 C4             1.9210     0.7206     0.0039 C.2     
   5 C5             1.0399     1.7472     0.0291 C.2     
   6 C6             1.5450    -1.8522    -0.0161 C.2     
   7 O7             2.7316    -2.1125    -0.0381 O.2     
   8 N8             0.6367    -2.8478    -0.0116 N.am    
   9 C9             1.3712     3.2174     0.0382 C.3     
  10 C10            1.0800    -4.2439    -0.0333 C.3     
  11 S11           -2.0184    -6.6735     0.6704 S.3     
  12 C12           -1.7866    -6.2881    -0.9788 C.2     
  13 N13           -0.7643    -5.4984    -1.1177 N.2     
  14 C14           -0.1219    -5.1529    -0.0231 C.2     
  15 C15           -0.6303    -5.6814     1.1097 C.2     
  16 C16            1.6775    -5.4526     4.0637 C.ar    
  17 C17            1.2394    -5.6661     2.7745 C.ar    
  18 C18           -0.1148    -5.4659     2.4758 C.ar    
  19 C19           -0.9660    -5.0547     3.5105 C.ar    
  20 C20           -0.4420    -4.8651     4.7706 C.ar    
  21 N21            0.8412    -5.0653     5.0087 N.ar    
  22 C22           -2.4319    -4.8230     3.2487 C.3     
  23 C23            3.1302    -5.6702     4.4004 C.3     
  24 N24           -2.5744    -6.7511    -2.0169 N.3     
  25 C25           -2.1033    -6.2304    -3.3085 C.3     
  26 C26           -3.0365    -6.7178    -4.4201 C.3     
  27 O27           -3.0890    -8.1468    -4.3991 O.3     
  28 C28           -3.5442    -8.6880    -3.1560 C.3     
  29 C29           -2.6163    -8.2205    -2.0316 C.3     
  30 C30           -3.5298   -10.2162    -3.2282 C.3     
  31 C31           -2.5065    -6.2459    -5.7756 C.3     
  32 H32            2.9998     0.7697    -0.0131 H       
  33 H33           -0.3106    -2.6400     0.0060 H       
  34 H34            0.4487     3.7975     0.0596 H       
  35 H35            1.9673     3.4501     0.9206 H       
  36 H36            1.9371     3.4678    -0.8591 H       
  37 H37            1.6652    -4.4254    -0.9348 H       
  38 H38            1.6941    -4.4438     0.8448 H       
  39 H39            1.9293    -5.9826     2.0063 H       
  40 H40           -1.0897    -4.5479     5.5745 H       
  41 H41           -2.9679    -5.7694     3.3207 H       
  42 H42           -2.8269    -4.1248     3.9867 H       
  43 H43           -2.5613    -4.4073     2.2495 H       
  44 H44            3.6809    -4.7415     4.2510 H       
  45 H45            3.2191    -5.9819     5.4411 H       
  46 H46            3.5412    -6.4446     3.7528 H       
  47 H47           -2.1046    -5.1406    -3.2840 H       
  48 H48           -1.0919    -6.5896    -3.4987 H       
  49 H49           -4.0362    -6.3144    -4.2590 H       
  50 H50           -4.5587    -8.3419    -2.9582 H       
  51 H51           -1.6131    -8.6115    -2.2014 H       
  52 H52           -2.9920    -8.5836    -1.0750 H       
  53 H53           -2.5145   -10.5611    -3.4242 H       
  54 H54           -3.8768   -10.6281    -2.2806 H       
  55 H55           -4.1876   -10.5483    -4.0314 H       
  56 H56           -1.5076    -6.6514    -5.9363 H       
  57 H57           -3.1712    -6.5932    -6.5665 H       
  58 H58           -2.4631    -5.1569    -5.7896 H       
@<TRIPOS>BOND
   1    1    2 1
   2    1    5 1
   3    2    3 2
   4    3    4 1
   5    3    6 1
   6    4    5 2
   7    4   32 1
   8    5    9 1
   9    6    7 2
  10    6    8 am
  11    8   10 1
  12    8   33 1
  13    9   34 1
  14    9   35 1
  15    9   36 1
  16   10   14 1
  17   10   37 1
  18   10   38 1
  19   11   12 1
  20   11   15 1
  21   12   13 2
  22   12   24 1
  23   13   14 1
  24   14   15 2
  25   15   18 1
  26   16   17 ar
  27   16   21 ar
  28   16   23 1
  29   17   18 ar
  30   17   39 1
  31   18   19 ar
  32   19   20 ar
  33   19   22 1
  34   20   21 ar
  35   20   40 1
  36   22   41 1
  37   22   42 1
  38   22   43 1
  39   23   44 1
  40   23   45 1
  41   23   46 1
  42   24   25 1
  43   24   29 1
  44   25   26 1
  45   25   47 1
  46   25   48 1
  47   26   27 1
  48   26   31 1
  49   26   49 1
  50   27   28 1
  51   28   29 1
  52   28   30 1
  53   28   50 1
  54   29   51 1
  55   29   52 1
  56   30   53 1
  57   30   54 1
  58   30   55 1
  59   31   56 1
  60   31   57 1
  61   31   58 1

#	End of record

