#	Name: ASD01470004
#	Creating user name:	WinNT
#	Creation time:	15. 06. 2019 19:21

#	Modifying user name:	WinNT
#	Modification time:	15. 06. 2019 19:21

#	Program:	/corina/corina34_cracker 3.40 0067  02.08.2006

@<TRIPOS>MOLECULE
ASD01470004
 135  136    0    0    0
SMALL
NO_CHARGES


@<TRIPOS>ATOM
   1 C1            -0.2757     1.7562     0.2189 C.ar    
   2 C2            -0.1522     0.3811     0.2876 C.ar    
   3 C3             1.0987    -0.1956     0.4041 C.ar    
   4 C4             2.2262     0.6029     0.4514 C.ar    
   5 C5             2.1028     1.9779     0.3818 C.ar    
   6 C6             0.8518     2.5546     0.2667 C.ar    
   7 C7            -1.3813    -0.4893     0.2360 C.3     
   8 C8            -1.6928    -0.8463    -1.2188 C.3     
   9 N9            -2.0478     0.3696    -1.9548 N.am    
  10 C10           -1.8746     0.4238    -3.2903 C.2     
  11 C11           -2.2398     1.6746    -4.0473 C.3     
  12 O12           -1.4249    -0.5341    -3.8828 O.2     
  13 N13           -1.9600     1.4821    -5.4724 N.am    
  14 C14           -3.7286     1.9705    -3.8554 C.3     
  15 C15           -4.5439     0.8495    -4.4466 C.2     
  16 N16           -5.8891     0.9308    -4.4634 N.am    
  17 O17           -3.9896    -0.1259    -4.9073 O.2     
  18 C18           -1.7619     2.5500    -6.2705 C.2     
  19 O19           -1.9086     3.6709    -5.8312 O.2     
  20 C20           -1.3583     2.3512    -7.7087 C.3     
  21 C21           -1.2000     3.7135    -8.3870 C.3     
  22 C22           -0.7902     3.5117    -9.8472 C.3     
  23 C23           -0.6319     4.8740   -10.5254 C.3     
  24 C24            1.6405     9.5160   -19.0792 C.3     
  25 C25            2.0503     9.3142   -20.5394 C.3     
  26 C26            2.6122    10.4777   -22.6559 C.2     
  27 O27            2.7589     9.3568   -23.0952 O.2     
  28 C28            2.7781    12.5494   -25.6631 C.2     
  29 N29            3.0361    12.5937   -26.9852 N.am    
  30 O30            2.2042    13.4731   -25.1260 O.2     
  31 C31            2.6234    13.7574   -27.7735 C.3     
  32 C32            3.6952    14.8450   -27.6769 C.3     
  33 C33            2.4479    13.3516   -29.2142 C.2     
  34 C34            3.7857    15.3451   -26.2338 C.3     
  35 C35            4.9402    16.3416   -26.1108 C.3     
  36 C36            2.4745    16.0337   -25.8496 C.3     
  37 O37            2.6480    12.2033   -29.5495 O.2     
  38 N38            2.0687    14.2647   -30.1302 N.am    
  39 C39            2.2085    10.6765   -21.2176 C.3     
  40 C40            2.3604    14.7559   -34.6690 C.ar    
  41 C41            2.2027    14.3845   -35.9912 C.ar    
  42 C42            0.9762    13.9360   -36.4424 C.ar    
  43 C43           -0.0974    13.8586   -35.5674 C.ar    
  44 C44            0.0637    14.2317   -34.2407 C.ar    
  45 C45            1.2917    14.6798   -33.7947 C.ar    
  46 C46            1.8982    13.8702   -31.5307 C.3     
  47 C47            1.4671    15.0856   -32.3540 C.3     
  48 N48            2.8102    11.5455   -23.4540 N.am    
  49 C49            3.2027    11.3523   -24.8521 C.3     
  50 C50            4.7217    11.1910   -24.9378 C.3     
  51 O51            5.3551    12.3640   -24.4231 O.3     
  52 C52            5.1528     9.9756   -24.1145 C.3     
  53 O53           -1.3048    13.4182   -36.0089 O.3     
  54 C54           -2.8465    -1.8148    -1.2625 C.2     
  55 O55           -3.8612    -1.5197    -1.8482 O.2     
  56 O56           -2.7469    -3.0054    -0.6506 O.3     
  57 C57           -0.2221     4.6722   -11.9856 C.3     
  58 C58           -0.0638     6.0345   -12.6639 C.3     
  59 C59            0.3460     5.8327   -14.1241 C.3     
  60 C60            0.5043     7.1950   -14.8023 C.3     
  61 C61            0.9141     6.9932   -16.2625 C.3     
  62 C62            1.0724     8.3555   -16.9407 C.3     
  63 C63            1.4822     8.1537   -18.4009 C.3     
  64 H64           -1.2527     2.2065     0.1234 H       
  65 H65            1.1951    -1.2699     0.4584 H       
  66 H66            3.2034     0.1524     0.5431 H       
  67 H67            2.9836     2.6017     0.4191 H       
  68 H68            0.7554     3.6289     0.2120 H       
  69 H69           -1.2040    -1.4025     0.8042 H       
  70 H70           -2.2258     0.0485     0.6669 H       
  71 H71           -0.8160    -1.3049    -1.6761 H       
  72 H72           -2.4075     1.1357    -1.4809 H       
  73 H73           -1.6515     2.5117    -3.6713 H       
  74 H74           -1.9172     0.5861    -5.8416 H       
  75 H75           -3.9476     2.0569    -2.7911 H       
  76 H76           -3.9805     2.9058    -4.3552 H       
  77 H77           -6.3325     1.7109    -4.0949 H       
  78 H78           -6.4139     0.2092    -4.8439 H       
  79 H79           -0.4113     1.8130    -7.7493 H       
  80 H80           -2.1260     1.7751    -8.2253 H       
  81 H81           -2.1470     4.2517    -8.3465 H       
  82 H82           -0.4323     4.2896    -7.8704 H       
  83 H83            0.1568     2.9735    -9.8877 H       
  84 H84           -1.5579     2.9356   -10.3638 H       
  85 H85           -1.5789     5.4122   -10.4849 H       
  86 H86            0.1358     5.4501   -10.0088 H       
  87 H87            2.4082    10.0920   -18.5626 H       
  88 H88            0.6935    10.0542   -19.0387 H       
  89 H89            2.9973     8.7759   -20.5799 H       
  90 H90            1.2826     8.7381   -21.0560 H       
  91 H91            3.4951    11.8549   -27.4147 H       
  92 H92            1.6796    14.1420   -27.3869 H       
  93 H93            4.6582    14.4340   -27.9801 H       
  94 H94            3.4313    15.6744   -28.3331 H       
  95 H95            3.9617    14.5010   -25.5671 H       
  96 H96            4.7641    17.1857   -26.7776 H       
  97 H97            5.0046    16.6979   -25.0827 H       
  98 H98            5.8742    15.8510   -26.3846 H       
  99 H99            2.2985    16.8779   -26.5163 H       
 100 H100           1.6520    15.3238   -25.9372 H       
 101 H101           2.5390    16.3900   -24.8215 H       
 102 H102           1.9088    15.1831   -29.8620 H       
 103 H103           1.2616    11.2147   -21.1771 H       
 104 H104           2.9763    11.2525   -20.7010 H       
 105 H105           3.3211    15.1020   -34.3172 H       
 106 H106           3.0388    14.4452   -36.6721 H       
 107 H107           0.8534    13.6462   -37.4755 H       
 108 H108          -0.7708    14.1727   -33.5576 H       
 109 H109           2.8419    13.4856   -31.9173 H       
 110 H110           1.1346    13.0954   -31.5995 H       
 111 H111           2.2307    15.8604   -32.2852 H       
 112 H112           0.5234    15.4702   -31.9674 H       
 113 H113           2.6929    12.4420   -23.1026 H       
 114 H114           2.7196    10.4576   -25.2448 H       
 115 H115           5.0137    11.0472   -25.9781 H       
 116 H116           5.1400    12.5540   -23.4997 H       
 117 H117           4.6697     9.0809   -24.5072 H       
 118 H118           6.2350     9.8606   -24.1756 H       
 119 H119           4.8608    10.1194   -23.0742 H       
 120 H120          -1.4272    12.4621   -35.9313 H       
 121 H121          -3.5129    -3.5930    -0.7061 H       
 122 H122           0.7249     4.1340   -12.0261 H       
 123 H123          -0.9898     4.0961   -12.5022 H       
 124 H124          -1.0108     6.5727   -12.6233 H       
 125 H125           0.7039     6.6106   -12.1473 H       
 126 H126           1.2930     5.2945   -14.1646 H       
 127 H127          -0.4217     5.2566   -14.6406 H       
 128 H128          -0.4427     7.7332   -14.7618 H       
 129 H129           1.2720     7.7710   -14.2857 H       
 130 H130           1.8611     6.4549   -16.3030 H       
 131 H131           0.1464     6.4171   -16.7791 H       
 132 H132           0.1254     8.8937   -16.9002 H       
 133 H133           1.8401     8.9315   -16.4242 H       
 134 H134           0.7145     7.5776   -18.9175 H       
 135 H135           2.4292     7.6154   -18.4415 H       
@<TRIPOS>BOND
   1    1    2 ar
   2    1    6 ar
   3    1   64 1
   4    2    3 ar
   5    2    7 1
   6    3    4 ar
   7    3   65 1
   8    4    5 ar
   9    4   66 1
  10    5    6 ar
  11    5   67 1
  12    6   68 1
  13    7    8 1
  14    7   69 1
  15    7   70 1
  16    8    9 1
  17    8   54 1
  18    8   71 1
  19    9   10 am
  20    9   72 1
  21   10   11 1
  22   10   12 2
  23   11   13 1
  24   11   14 1
  25   11   73 1
  26   13   18 am
  27   13   74 1
  28   14   15 1
  29   14   75 1
  30   14   76 1
  31   15   16 am
  32   15   17 2
  33   16   77 1
  34   16   78 1
  35   18   19 2
  36   18   20 1
  37   20   21 1
  38   20   79 1
  39   20   80 1
  40   21   22 1
  41   21   81 1
  42   21   82 1
  43   22   23 1
  44   22   83 1
  45   22   84 1
  46   23   57 1
  47   23   85 1
  48   23   86 1
  49   24   25 1
  50   24   63 1
  51   24   87 1
  52   24   88 1
  53   25   39 1
  54   25   89 1
  55   25   90 1
  56   26   27 2
  57   26   48 am
  58   26   39 1
  59   28   29 am
  60   28   30 2
  61   28   49 1
  62   29   31 1
  63   29   91 1
  64   31   32 1
  65   31   33 1
  66   31   92 1
  67   32   34 1
  68   32   93 1
  69   32   94 1
  70   33   37 2
  71   33   38 am
  72   34   35 1
  73   34   36 1
  74   34   95 1
  75   35   96 1
  76   35   97 1
  77   35   98 1
  78   36   99 1
  79   36  100 1
  80   36  101 1
  81   38   46 1
  82   38  102 1
  83   39  103 1
  84   39  104 1
  85   40   41 ar
  86   40   45 ar
  87   40  105 1
  88   41   42 ar
  89   41  106 1
  90   42   43 ar
  91   42  107 1
  92   43   44 ar
  93   43   53 1
  94   44   45 ar
  95   44  108 1
  96   45   47 1
  97   46   47 1
  98   46  109 1
  99   46  110 1
 100   47  111 1
 101   47  112 1
 102   48   49 1
 103   48  113 1
 104   49   50 1
 105   49  114 1
 106   50   51 1
 107   50   52 1
 108   50  115 1
 109   51  116 1
 110   52  117 1
 111   52  118 1
 112   52  119 1
 113   53  120 1
 114   54   55 2
 115   54   56 1
 116   56  121 1
 117   57   58 1
 118   57  122 1
 119   57  123 1
 120   58   59 1
 121   58  124 1
 122   58  125 1
 123   59   60 1
 124   59  126 1
 125   59  127 1
 126   60   61 1
 127   60  128 1
 128   60  129 1
 129   61   62 1
 130   61  130 1
 131   61  131 1
 132   62   63 1
 133   62  132 1
 134   62  133 1
 135   63  134 1
 136   63  135 1

#	End of record

