#	Name: ASD01914320
#	Creating user name:	WinNT
#	Creation time:	15. 06. 2019 20:03

#	Modifying user name:	WinNT
#	Modification time:	15. 06. 2019 20:03

#	Program:	/corina/corina34_cracker 3.40 0067  02.08.2006

@<TRIPOS>MOLECULE
ASD01914320
  32   34    0    0    0
SMALL
NO_CHARGES


@<TRIPOS>ATOM
   1 N1            -0.0165     1.3623     0.0095 N.pl3   
   2 C2             0.0021    -0.0041     0.0020 C.2     
   3 C3             1.2814     1.7844    -0.0006 C.2     
   4 N4             2.0648     0.7307    -0.0137 N.2     
   5 C5             1.3088    -0.3821    -0.0125 C.2     
   6 C6             1.7306     3.1938     0.0027 C.ar    
   7 C7             3.0930     3.4950    -0.0087 C.ar    
   8 C8             3.5054     4.8116    -0.0055 C.ar    
   9 C9             2.5714     5.8321     0.0094 C.ar    
  10 C10            1.2191     5.5401     0.0212 C.ar    
  11 C11            0.7936     4.2277     0.0114 C.ar    
  12 C12            1.8122    -1.7778    -0.0240 C.ar    
  13 C13            3.1835    -2.0266    -0.0382 C.ar    
  14 C14            0.9159    -2.8445    -0.0150 C.ar    
  15 C15            1.3898    -4.1409    -0.0253 C.ar    
  16 C16            2.7515    -4.3820    -0.0442 C.ar    
  17 C17            3.6461    -3.3267    -0.0484 C.ar    
  18 C18            5.1284    -3.5973    -0.0696 C.3     
  19 H19           -0.8051     1.9270     0.0165 H       
  20 H20           -0.8568    -0.6589     0.0070 H       
  21 H21            3.8231     2.6992    -0.0196 H       
  22 H22            4.5596     5.0460    -0.0143 H       
  23 H23            2.8993     6.8611     0.0122 H       
  24 H24            0.4949     6.3413     0.0332 H       
  25 H25           -0.2623     4.0010     0.0203 H       
  26 H26            3.8827    -1.2035    -0.0415 H       
  27 H27           -0.1477    -2.6574     0.0005 H       
  28 H28            0.6959    -4.9685    -0.0183 H       
  29 H29            3.1179    -5.3979    -0.0515 H       
  30 H30            5.4725    -3.6554    -1.1022 H       
  31 H31            5.6524    -2.7907     0.4432 H       
  32 H32            5.3326    -4.5416     0.4351 H       
@<TRIPOS>BOND
   1    1    2 1
   2    1    3 1
   3    1   19 1
   4    2    5 2
   5    2   20 1
   6    3    4 2
   7    3    6 1
   8    4    5 1
   9    5   12 1
  10    6    7 ar
  11    6   11 ar
  12    7    8 ar
  13    7   21 1
  14    8    9 ar
  15    8   22 1
  16    9   10 ar
  17    9   23 1
  18   10   11 ar
  19   10   24 1
  20   11   25 1
  21   12   13 ar
  22   12   14 ar
  23   13   17 ar
  24   13   26 1
  25   14   15 ar
  26   14   27 1
  27   15   16 ar
  28   15   28 1
  29   16   17 ar
  30   16   29 1
  31   17   18 1
  32   18   30 1
  33   18   31 1
  34   18   32 1

#	End of record

