#	Name: ASD09740215
#	Creating user name:	WinNT
#	Creation time:	15. 06. 2019 21:22

#	Modifying user name:	WinNT
#	Modification time:	15. 06. 2019 21:22

#	Program:	/corina/corina34_cracker 3.40 0067  02.08.2006

@<TRIPOS>MOLECULE
ASD09740215
  50   52    0    0    0
SMALL
NO_CHARGES


@<TRIPOS>ATOM
   1 O1            -0.0144     1.2085     0.0087 O.3     
   2 N2             0.0021    -0.0041     0.0020 N.2     
   3 C3             1.2411     1.6827    -0.0008 C.2     
   4 N4             2.0453     0.6365    -0.0141 N.2     
   5 C5             1.2345    -0.4420    -0.0121 C.2     
   6 C6             1.6625    -1.8640    -0.0231 C.ar    
   7 C7             1.6456     3.1046     0.0023 C.ar    
   8 C8             0.7215    -2.8965    -0.0197 C.ar    
   9 C9             3.0169    -2.2055    -0.0429 C.ar    
  10 C10            3.3712    -3.5396    -0.0525 C.ar    
  11 N11            2.4511    -4.4844    -0.0437 N.ar    
  12 C12            1.1623    -4.2046    -0.0302 C.ar    
  13 C13            0.6765     4.1090     0.0167 C.ar    
  14 C14            1.0608     5.4340     0.0194 C.ar    
  15 C15            2.4033     5.7681     0.0079 C.ar    
  16 C16            3.3690     4.7774    -0.0064 C.ar    
  17 C17            2.9982     3.4485    -0.0034 C.ar    
  18 C18            4.6856    13.5686     5.7913 C.3     
  19 C19            2.8157     7.2176     0.0104 C.3     
  20 C20            4.5321    13.0845     4.3480 C.3     
  21 C21            2.9692     7.7017     1.4537 C.3     
  22 C22            4.1135    11.6129     4.3454 C.3     
  23 C23            3.9600    11.1289     2.9022 C.3     
  24 C24            3.5413     9.6573     2.8996 C.3     
  25 C25            3.3878     9.1733     1.4563 C.3     
  26 H26           -0.3354    -2.6745    -0.0087 H       
  27 H27            3.7756    -1.4369    -0.0509 H       
  28 H28            4.4159    -3.8134    -0.0678 H       
  29 H29            0.4423    -5.0096    -0.0230 H       
  30 H30           -0.3718     3.8494     0.0253 H       
  31 H31            0.3119     6.2121     0.0301 H       
  32 H32            4.4153     5.0449    -0.0157 H       
  33 H33            3.7530     2.6761    -0.0146 H       
  34 H34            3.7352    13.4603     6.3139 H       
  35 H35            5.4471    12.9733     6.2951 H       
  36 H36            4.9839    14.6170     5.7931 H       
  37 H37            3.7661     7.3259    -0.5121 H       
  38 H38            2.0541     7.8129    -0.4934 H       
  39 H39            3.7706    13.6798     3.8442 H       
  40 H40            5.4825    13.1928     3.8255 H       
  41 H41            2.0187     7.5934     1.9763 H       
  42 H42            3.7307     7.1064     1.9575 H       
  43 H43            4.8750    11.0177     4.8492 H       
  44 H44            3.1630    11.5046     4.8680 H       
  45 H45            3.1984    11.7242     2.3984 H       
  46 H46            4.9104    11.2372     2.3796 H       
  47 H47            4.3028     9.0620     3.4034 H       
  48 H48            2.5909     9.5490     3.4221 H       
  49 H49            4.3382     9.2816     0.9337 H       
  50 H50            2.6263     9.7685     0.9525 H       
@<TRIPOS>BOND
   1    1    2 1
   2    1    3 1
   3    2    5 2
   4    3    4 2
   5    3    7 1
   6    4    5 1
   7    5    6 1
   8    6    8 ar
   9    6    9 ar
  10    7   13 ar
  11    7   17 ar
  12    8   12 ar
  13    8   26 1
  14    9   10 ar
  15    9   27 1
  16   10   11 ar
  17   10   28 1
  18   11   12 ar
  19   12   29 1
  20   13   14 ar
  21   13   30 1
  22   14   15 ar
  23   14   31 1
  24   15   16 ar
  25   15   19 1
  26   16   17 ar
  27   16   32 1
  28   17   33 1
  29   18   20 1
  30   18   34 1
  31   18   35 1
  32   18   36 1
  33   19   21 1
  34   19   37 1
  35   19   38 1
  36   20   22 1
  37   20   39 1
  38   20   40 1
  39   21   25 1
  40   21   41 1
  41   21   42 1
  42   22   23 1
  43   22   43 1
  44   22   44 1
  45   23   24 1
  46   23   45 1
  47   23   46 1
  48   24   25 1
  49   24   47 1
  50   24   48 1
  51   25   49 1
  52   25   50 1

#	End of record

