#	Name: ASD02038655
#	Creating user name:	WinNT
#	Creation time:	15. 06. 2019 20:17

#	Modifying user name:	WinNT
#	Modification time:	15. 06. 2019 20:17

#	Program:	/corina/corina34_cracker 3.40 0067  02.08.2006

@<TRIPOS>MOLECULE
ASD02038655
  60   63    0    0    0
SMALL
NO_CHARGES


@<TRIPOS>ATOM
   1 C1            -0.0167     1.3829     0.0096 C.ar    
   2 C2             0.0021    -0.0041     0.0020 C.ar    
   3 O3            -1.1663    -0.6996     0.0089 O.3     
   4 C4            -1.0725    -2.1255     0.0003 C.3     
   5 C5            -2.4783    -2.7291     0.0098 C.3     
   6 C6            -2.3790    -4.2514     0.1265 C.3     
   7 N7            -3.7288    -4.8310     0.1356 N.3     
   8 C8            -3.6747    -6.2929     0.0077 C.3     
   9 C9            -5.0948    -6.8475    -0.1254 C.3     
  10 C10            1.1696     2.0892     0.0021 C.ar    
  11 C11            2.3814     1.4117    -0.0127 C.ar    
  12 C12            2.3995     0.0234    -0.0201 C.ar    
  13 C13            1.2125    -0.6819    -0.0131 C.ar    
  14 O14           -3.1517    -2.3873    -1.2033 O.3     
  15 C15           -4.4654    -4.4303     1.3411 C.3     
  16 C16           -5.9090    -6.4543     1.1104 C.3     
  17 C17           -5.9091    -4.9293     1.2478 C.3     
  18 C18           -7.3468    -6.9539     0.9555 C.3     
  19 C19           -8.1770    -6.4617     2.1129 C.ar    
  20 O20           -5.3219    -7.0387     2.2748 O.3     
  21 N21            3.5831     2.1306    -0.0206 N.am    
  22 C22            3.6068     3.4229     0.3537 C.2     
  23 C23            2.3499     4.1169     0.8049 C.3     
  24 C24            1.1530     3.5958     0.0088 C.3     
  25 O25            4.6534     4.0355     0.3274 O.2     
  26 C26           -8.8342    -5.2487     2.0257 C.ar    
  27 C27           -8.2859    -7.2259     3.2597 C.ar    
  28 C28           -9.0474    -6.7744     4.3214 C.ar    
  29 C29           -9.6996    -5.5586     4.2365 C.ar    
  30 C30           -9.5957    -4.7972     3.0874 C.ar    
  31 H31           -0.9592     1.9103     0.0170 H       
  32 H32           -0.5440    -2.4495    -0.8962 H       
  33 H33           -0.5279    -2.4591     0.8836 H       
  34 H34           -3.0371    -2.3354     0.8589 H       
  35 H35           -1.8202    -4.6452    -0.7226 H       
  36 H36           -1.8653    -4.5121     1.0519 H       
  37 H37           -3.0964    -6.5589    -0.8771 H       
  38 H38           -3.2004    -6.7175     0.8925 H       
  39 H39           -5.5648    -6.4339    -1.0176 H       
  40 H40           -5.0552    -7.9339    -0.2045 H       
  41 H41            3.3416    -0.5046    -0.0318 H       
  42 H42            1.2263    -1.7618    -0.0189 H       
  43 H43           -2.7095    -2.7064    -2.0019 H       
  44 H44           -3.9874    -4.8636     2.2196 H       
  45 H45           -4.4615    -3.3435     1.4246 H       
  46 H46           -6.4513    -4.6453     2.1497 H       
  47 H47           -6.3920    -4.4855     0.3772 H       
  48 H48           -7.7642    -6.5759     0.0223 H       
  49 H49           -7.3532    -8.0438     0.9413 H       
  50 H50           -5.7874    -6.8307     3.0965 H       
  51 H51            4.4039     1.6940    -0.2974 H       
  52 H52            2.1908     3.9239     1.8658 H       
  53 H53            2.4516     5.1902     0.6448 H       
  54 H54            1.2100     3.9642    -1.0154 H       
  55 H55            0.2298     3.9467     0.4699 H       
  56 H56           -8.7524    -4.6536     1.1281 H       
  57 H57           -7.7763    -8.1758     3.3261 H       
  58 H58           -9.1330    -7.3717     5.2171 H       
  59 H59          -10.2949    -5.2060     5.0658 H       
  60 H60          -10.1053    -3.8473     3.0210 H       
@<TRIPOS>BOND
   1    1    2 ar
   2    1   10 ar
   3    1   31 1
   4    2    3 1
   5    2   13 ar
   6    3    4 1
   7    4    5 1
   8    4   32 1
   9    4   33 1
  10    5    6 1
  11    5   14 1
  12    5   34 1
  13    6    7 1
  14    6   35 1
  15    6   36 1
  16    7    8 1
  17    7   15 1
  18    8    9 1
  19    8   37 1
  20    8   38 1
  21    9   16 1
  22    9   39 1
  23    9   40 1
  24   10   11 ar
  25   10   24 1
  26   11   12 ar
  27   11   21 1
  28   12   13 ar
  29   12   41 1
  30   13   42 1
  31   14   43 1
  32   15   17 1
  33   15   44 1
  34   15   45 1
  35   16   17 1
  36   16   18 1
  37   16   20 1
  38   17   46 1
  39   17   47 1
  40   18   19 1
  41   18   48 1
  42   18   49 1
  43   19   26 ar
  44   19   27 ar
  45   20   50 1
  46   21   22 am
  47   21   51 1
  48   22   23 1
  49   22   25 2
  50   23   24 1
  51   23   52 1
  52   23   53 1
  53   24   54 1
  54   24   55 1
  55   26   30 ar
  56   26   56 1
  57   27   28 ar
  58   27   57 1
  59   28   29 ar
  60   28   58 1
  61   29   30 ar
  62   29   59 1
  63   30   60 1

#	End of record

