#	Name: ASD01915367
#	Creating user name:	WinNT
#	Creation time:	15. 06. 2019 20:05

#	Modifying user name:	WinNT
#	Modification time:	15. 06. 2019 20:05

#	Program:	/corina/corina34_cracker 3.40 0067  02.08.2006

@<TRIPOS>MOLECULE
ASD01915367
  41   44    0    0    0
SMALL
NO_CHARGES


@<TRIPOS>ATOM
   1 C1             0.0059     1.3249    -0.0446 C.ar    
   2 C2             0.0524    -0.0671    -0.0681 C.ar    
   3 N3             1.2169    -0.7028    -0.0755 N.ar    
   4 C4             2.3606    -0.0493    -0.0612 C.ar    
   5 C5             2.3881     1.3331    -0.0373 C.ar    
   6 C6             1.1928     2.0374    -0.0292 C.ar    
   7 C7             3.7039     2.0676    -0.0201 C.3     
   8 N8             4.6647     1.3524     0.8325 N.am    
   9 C9             5.8093     0.9309     0.0044 C.3     
  10 C10            5.8172     1.9153    -1.1917 C.3     
  11 C11            4.2989     2.1119    -1.4434 C.3     
  12 C12            4.5229     1.1211     2.1527 C.2     
  13 O13            3.5842     1.6043     2.7577 O.2     
  14 C14            5.5002     0.2868     2.8602 C.2     
  15 C15           -1.2106    -0.8451    -0.0843 C.ar    
  16 C16           -1.1736    -2.2376    -0.1078 C.ar    
  17 C17           -2.3530    -2.9569    -0.1224 C.ar    
  18 C18           -3.5692    -2.2961    -0.1137 C.ar    
  19 C19           -3.6106    -0.9136    -0.0909 C.ar    
  20 C20           -2.4385    -0.1856    -0.0703 C.ar    
  21 Cl21          -2.3096    -4.6921    -0.1522 Cl      
  22 C22            5.5454     0.0682     4.1983 C.2     
  23 N23            6.5195    -0.7188     4.5808 N.2     
  24 C24            7.3042    -1.1837     3.6625 C.2     
  25 S25            6.8214    -0.6171     2.1235 S.3     
  26 H26           -0.9427     1.8412    -0.0431 H       
  27 H27            3.2892    -0.6006    -0.0679 H       
  28 H28            1.1883     3.1172    -0.0106 H       
  29 H29            3.5580     3.0806     0.3548 H       
  30 H30            6.7374     1.0135     0.5699 H       
  31 H31            5.6676    -0.0913    -0.3466 H       
  32 H32            6.2932     2.8573    -0.9192 H       
  33 H33            6.3029     1.4708    -2.0603 H       
  34 H34            3.9009     1.3008    -2.0532 H       
  35 H35            4.1074     3.0775    -1.9115 H       
  36 H36           -0.2249    -2.7536    -0.1149 H       
  37 H37           -4.4891    -2.8618    -0.1251 H       
  38 H38           -4.5623    -0.4030    -0.0849 H       
  39 H39           -2.4725     0.8937    -0.0526 H       
  40 H40            4.8393     0.5059     4.8885 H       
  41 H41            8.1425    -1.8404     3.8424 H       
@<TRIPOS>BOND
   1    1    2 ar
   2    1    6 ar
   3    1   26 1
   4    2    3 ar
   5    2   15 1
   6    3    4 ar
   7    4    5 ar
   8    4   27 1
   9    5    6 ar
  10    5    7 1
  11    6   28 1
  12    7    8 1
  13    7   11 1
  14    7   29 1
  15    8    9 1
  16    8   12 am
  17    9   10 1
  18    9   30 1
  19    9   31 1
  20   10   11 1
  21   10   32 1
  22   10   33 1
  23   11   34 1
  24   11   35 1
  25   12   13 2
  26   12   14 1
  27   14   22 2
  28   14   25 1
  29   15   16 ar
  30   15   20 ar
  31   16   17 ar
  32   16   36 1
  33   17   18 ar
  34   17   21 1
  35   18   19 ar
  36   18   37 1
  37   19   20 ar
  38   19   38 1
  39   20   39 1
  40   22   23 1
  41   22   40 1
  42   23   24 2
  43   24   25 1
  44   24   41 1

#	End of record

