#	Name: ASD07930346
#	Creating user name:	WinNT
#	Creation time:	15. 06. 2019 21:12

#	Modifying user name:	WinNT
#	Modification time:	15. 06. 2019 21:12

#	Program:	/corina/corina34_cracker 3.40 0067  02.08.2006

@<TRIPOS>MOLECULE
ASD07930346
  46   47    0    0    0
SMALL
NO_CHARGES


@<TRIPOS>ATOM
   1 N1            -0.0178     1.4625     0.0101 N.pl3   
   2 C2             0.0021    -0.0041     0.0020 C.3     
   3 C3             0.7718    -0.5048     1.2325 C.3     
   4 S4             2.4285     0.2504     1.2124 S.o2    
   5 N5             2.0919     1.8640     0.9683 N.am    
   6 C6             1.1578     2.1624     0.0026 C.2     
   7 C7            -1.4106    -0.5271     0.0446 C.ar    
   8 C8            -2.2925    -0.1997    -0.9710 C.ar    
   9 C9             2.7573     2.9137     1.7441 C.3     
  10 O10            3.0216     0.2000     2.5027 O.2     
  11 O11            3.1487    -0.1441     0.0527 O.2     
  12 C12            0.6936    -0.4990    -1.2699 C.3     
  13 N13           -1.7913    -1.2958     1.0461 N.ar    
  14 C14           -3.0174    -1.7767     1.1247 C.ar    
  15 C15           -3.9550    -1.4886     0.1495 C.ar    
  16 C16           -3.5917    -0.6876    -0.9216 C.ar    
  17 Br17          -3.4985    -2.8736     2.5880 Br      
  18 F18           -1.8946     0.5845    -1.9965 F       
  19 N19            1.3895     3.0980    -0.9052 N.2     
  20 O20            0.7026     4.3249    -2.7604 O.3     
  21 C21           -0.3264     4.5641    -3.7227 C.3     
  22 C22           -1.6061     4.9965    -3.0041 C.3     
  23 C23            0.1189     5.6704    -4.6812 C.3     
  24 C24           -0.5938     3.2816    -4.5130 C.3     
  25 C25            0.4665     3.3713    -1.8351 C.2     
  26 O26           -0.5860     2.7598    -1.8463 O.2     
  27 H27           -0.8643     1.9361     0.0167 H       
  28 H28            0.2449    -0.2114     2.1405 H       
  29 H29            0.8620    -1.5903     1.1933 H       
  30 H30            3.6679     3.2228     1.2309 H       
  31 H31            2.0893     3.7690     1.8458 H       
  32 H32            3.0096     2.5302     2.7326 H       
  33 H33            1.7160    -0.1220    -1.2978 H       
  34 H34            0.7080    -1.5889    -1.2751 H       
  35 H35            0.1496    -0.1386    -2.1430 H       
  36 H36           -4.9568    -1.8858     0.2200 H       
  37 H37           -4.3028    -0.4462    -1.6977 H       
  38 H38           -1.4156     5.9101    -2.4410 H       
  39 H39           -2.3910     5.1790    -3.7381 H       
  40 H40           -1.9233     4.2083    -2.3212 H       
  41 H41            1.0305     5.3624    -5.1931 H       
  42 H42           -0.6660     5.8529    -5.4152 H       
  43 H43            0.3093     6.5841    -4.1181 H       
  44 H44           -0.9110     2.4935    -3.8301 H       
  45 H45           -1.3787     3.4641    -5.2470 H       
  46 H46            0.3179     2.9736    -5.0249 H       
@<TRIPOS>BOND
   1    1    2 1
   2    1    6 1
   3    1   27 1
   4    2    3 1
   5    2    7 1
   6    2   12 1
   7    3    4 1
   8    3   28 1
   9    3   29 1
  10    4    5 am
  11    4   10 2
  12    4   11 2
  13    5    6 1
  14    5    9 1
  15    6   19 2
  16    7   13 ar
  17    7    8 ar
  18    8   18 1
  19    8   16 ar
  20    9   30 1
  21    9   31 1
  22    9   32 1
  23   12   33 1
  24   12   34 1
  25   12   35 1
  26   13   14 ar
  27   14   15 ar
  28   14   17 1
  29   15   16 ar
  30   15   36 1
  31   16   37 1
  32   19   25 1
  33   20   21 1
  34   20   25 1
  35   21   22 1
  36   21   23 1
  37   21   24 1
  38   22   38 1
  39   22   39 1
  40   22   40 1
  41   23   41 1
  42   23   42 1
  43   23   43 1
  44   24   44 1
  45   24   45 1
  46   24   46 1
  47   25   26 2

#	End of record

