#	Name: ASD01890070
#	Creating user name:	WinNT
#	Creation time:	15. 06. 2019 19:50

#	Modifying user name:	WinNT
#	Modification time:	15. 06. 2019 19:50

#	Program:	/corina/corina34_cracker 3.40 0067  02.08.2006

@<TRIPOS>MOLECULE
ASD01890070
  51   52    0    0    0
SMALL
NO_CHARGES


@<TRIPOS>ATOM
   1 C1             0.0436     1.6083     0.2257 C.2     
   2 C2             0.0612     0.1083     0.0823 C.3     
   3 C3             1.4858    -0.3682    -0.0376 C.2     
   4 O4             0.9027     2.1639     0.8685 O.2     
   5 O5            -0.9234     2.3277    -0.3652 O.3     
   6 O6             1.9357    -1.1387     0.7772 O.2     
   7 O7             2.2550     0.0633    -1.0495 O.3     
   8 C8            -0.5881    -0.5293     1.3123 C.3     
   9 C9            -1.9851     0.0607     1.5151 C.3     
  10 C10           -2.5663    -0.4566     2.8057 C.2     
  11 O11           -1.9264    -1.2218     3.4951 O.2     
  12 C12           -3.9103    -0.0333     3.2291 C.ar    
  13 C13           -4.4531    -0.5114     4.4263 C.ar    
  14 C14           -5.7130    -0.1103     4.8164 C.ar    
  15 C15           -6.4408     0.7637     4.0262 C.ar    
  16 C16           -5.9102     1.2409     2.8394 C.ar    
  17 C17           -4.6492     0.8537     2.4392 C.ar    
  18 I18           -8.3545     1.3664     4.6291 I       
  19 C19           -0.6966    -2.0185     1.1079 C.ar    
  20 C20           -0.0647    -2.8836     1.9816 C.ar    
  21 C21           -0.1638    -4.2495     1.7947 C.ar    
  22 C22           -0.8957    -4.7508     0.7330 C.ar    
  23 C23           -1.5278    -3.8845    -0.1411 C.ar    
  24 C24           -1.4326    -2.5189     0.0501 C.ar    
  25 Cl25          -1.0202    -6.4662     0.4973 Cl      
  26 C26           -0.8776     3.7677    -0.1844 C.3     
  27 C27           -2.0510     4.4123    -0.9251 C.3     
  28 C28            3.6170    -0.4372    -1.1021 C.3     
  29 C29            4.3336     0.1609    -2.3144 C.3     
  30 H30           -0.4940    -0.1778    -0.8110 H       
  31 H31            0.0231    -0.3269     2.1918 H       
  32 H32           -1.9177     1.1478     1.5570 H       
  33 H33           -2.6272    -0.2318     0.6844 H       
  34 H34           -3.8868    -1.1933     5.0433 H       
  35 H35           -6.1336    -0.4789     5.7403 H       
  36 H36           -6.4838     1.9219     2.2283 H       
  37 H37           -4.2345     1.2307     1.5160 H       
  38 H38            0.5068    -2.4921     2.8101 H       
  39 H39            0.3302    -4.9253     2.4771 H       
  40 H40           -2.0992    -4.2752    -0.9700 H       
  41 H41           -1.9297    -1.8426    -0.6295 H       
  42 H42           -0.9452     4.0028     0.8778 H       
  43 H43            0.0602     4.1543    -0.5831 H       
  44 H44           -1.9834     4.1771    -1.9873 H       
  45 H45           -2.9889     4.0256    -0.5263 H       
  46 H46           -2.0166     5.4932    -0.7893 H       
  47 H47            4.1441    -0.1526    -0.1915 H       
  48 H48            3.6017    -1.5237    -1.1886 H       
  49 H49            3.8064    -0.1238    -3.2250 H       
  50 H50            4.3489     1.2473    -2.2280 H       
  51 H51            5.3560    -0.2149    -2.3540 H       
@<TRIPOS>BOND
   1    1    2 1
   2    1    4 2
   3    1    5 1
   4    2    3 1
   5    2    8 1
   6    2   30 1
   7    3    6 2
   8    3    7 1
   9    5   26 1
  10    7   28 1
  11    8    9 1
  12    8   19 1
  13    8   31 1
  14    9   10 1
  15    9   32 1
  16    9   33 1
  17   10   11 2
  18   10   12 1
  19   12   13 ar
  20   12   17 ar
  21   13   14 ar
  22   13   34 1
  23   14   15 ar
  24   14   35 1
  25   15   16 ar
  26   15   18 1
  27   16   17 ar
  28   16   36 1
  29   17   37 1
  30   19   20 ar
  31   19   24 ar
  32   20   21 ar
  33   20   38 1
  34   21   22 ar
  35   21   39 1
  36   22   23 ar
  37   22   25 1
  38   23   24 ar
  39   23   40 1
  40   24   41 1
  41   26   27 1
  42   26   42 1
  43   26   43 1
  44   27   44 1
  45   27   45 1
  46   27   46 1
  47   28   29 1
  48   28   47 1
  49   28   48 1
  50   29   49 1
  51   29   50 1
  52   29   51 1

#	End of record

