#	Name: ASD01020014
#	Creating user name:	WinNT
#	Creation time:	15. 06. 2019 18:56

#	Modifying user name:	WinNT
#	Modification time:	15. 06. 2019 18:56

#	Program:	/corina/corina34_cracker 3.40 0067  02.08.2006

@<TRIPOS>MOLECULE
ASD01020014
  65   70    0    0    0
SMALL
NO_CHARGES


@<TRIPOS>ATOM
   1 O1            -2.2795    -0.6529     1.0706 O.3     
   2 C2            -1.1135    -1.2881     0.7786 C.ar    
   3 C3            -1.0989    -2.3217    -0.1459 C.ar    
   4 C4             0.0869    -2.9664    -0.4418 C.ar    
   5 C5             1.2599    -2.5810     0.1842 C.ar    
   6 F6             2.4186    -3.2122    -0.1059 F       
   7 C7             1.2468    -1.5488     1.1072 C.ar    
   8 C8             0.0637    -0.8991     1.4009 C.ar    
   9 C9             0.0508     0.2280     2.4012 C.3     
  10 H10           -0.5552     1.0483     2.0165 H       
  11 N11           -0.5168    -0.2474     3.6653 N.am    
  12 C12           -1.6481     0.3595     4.3755 C.3     
  13 C13           -1.8648    -0.4731     5.6149 C.ar    
  14 C14           -2.7655    -0.3968     6.6532 C.ar    
  15 C15           -2.7231    -1.3239     7.6782 C.ar    
  16 C16           -1.7674    -2.3392     7.6628 C.ar    
  17 C17           -0.8547    -2.4211     6.6159 C.ar    
  18 C18           -0.9004    -1.4847     5.5843 C.ar    
  19 C19           -0.0905    -1.3147     4.3622 C.2     
  20 O20            0.8317    -2.0353     4.0342 O.2     
  21 C21           -1.7234    -3.3325     8.7639 C.ar    
  22 C22           -0.7650    -4.3447     8.7529 C.ar    
  23 C23           -0.7255    -5.2664     9.7772 C.ar    
  24 C24           -1.6410    -5.1873    10.8204 C.ar    
  25 C25           -2.5979    -4.1790    10.8330 C.ar    
  26 C26           -2.6368    -3.2516     9.8138 C.ar    
  27 N27           -1.5996    -6.1218    11.8562 N.3     
  28 C28           -0.2742    -6.1466    12.4905 C.3     
  29 C29           -0.2461    -7.2363    13.5648 C.3     
  30 N30           -1.2967    -6.9695    14.5571 N.3     
  31 C31           -2.6221    -6.9446    13.9229 C.3     
  32 C32           -2.6502    -5.8550    12.8485 C.3     
  33 C33            1.4597     0.7101     2.6330 C.2     
  34 O34            2.0655     0.3593     3.6234 O.2     
  35 N35            2.0466     1.5311     1.7396 N.am    
  36 C36            3.3800     1.8907     1.8975 C.2     
  37 N37            4.1479     1.4897     2.8616 N.2     
  38 C38            5.3920     1.9307     2.8575 C.2     
  39 C39            5.6893     2.7430     1.8414 C.2     
  40 S40            4.2478     2.9205     0.8442 S.3     
  41 H41           -2.4293     0.1511     0.5547 H       
  42 H42           -2.0139    -2.6228    -0.6342 H       
  43 H43            0.0985    -3.7716    -1.1614 H       
  44 H44            2.1626    -1.2491     1.5949 H       
  45 H45           -1.4096     1.3867     4.6514 H       
  46 H46           -2.5395     0.3368     3.7486 H       
  47 H47           -3.5063     0.3889     6.6675 H       
  48 H48           -3.4306    -1.2613     8.4917 H       
  49 H49           -0.1137    -3.2066     6.6028 H       
  50 H50           -0.0540    -4.4069     7.9423 H       
  51 H51            0.0169    -6.0508     9.7691 H       
  52 H52           -3.3087    -4.1197    11.6440 H       
  53 H53           -3.3775    -2.4657     9.8262 H       
  54 H54            0.4852    -6.3584    11.7378 H       
  55 H55           -0.0723    -5.1786    12.9490 H       
  56 H56           -0.4210    -8.2077    13.1023 H       
  57 H57            0.7268    -7.2372    14.0565 H       
  58 H58           -1.2668    -7.6450    15.3060 H       
  59 H59           -2.8240    -7.9127    13.4644 H       
  60 H60           -3.3815    -6.7329    14.6756 H       
  61 H61           -2.4753    -4.8836    13.3111 H       
  62 H62           -3.6230    -5.8541    12.3569 H       
  63 H63            1.5385     1.8710     0.9865 H       
  64 H64            6.1111     1.6563     3.6151 H       
  65 H65            6.6474     3.2070     1.6596 H       
@<TRIPOS>BOND
   1    1    2 1
   2    1   41 1
   3    2    8 ar
   4    2    3 ar
   5    3    4 ar
   6    3   42 1
   7    4    5 ar
   8    4   43 1
   9    5    6 1
  10    5    7 ar
  11    7    8 ar
  12    7   44 1
  13    8    9 1
  14    9   10 1
  15    9   11 1
  16    9   33 1
  17   11   19 am
  18   11   12 1
  19   12   13 1
  20   12   45 1
  21   12   46 1
  22   13   18 ar
  23   13   14 ar
  24   14   15 ar
  25   14   47 1
  26   15   16 ar
  27   15   48 1
  28   16   17 ar
  29   16   21 1
  30   17   18 ar
  31   17   49 1
  32   18   19 1
  33   19   20 2
  34   21   26 ar
  35   21   22 ar
  36   22   23 ar
  37   22   50 1
  38   23   24 ar
  39   23   51 1
  40   24   25 ar
  41   24   27 1
  42   25   26 ar
  43   25   52 1
  44   26   53 1
  45   27   32 1
  46   27   28 1
  47   28   29 1
  48   28   54 1
  49   28   55 1
  50   29   30 1
  51   29   56 1
  52   29   57 1
  53   30   31 1
  54   30   58 1
  55   31   32 1
  56   31   59 1
  57   31   60 1
  58   32   61 1
  59   32   62 1
  60   33   34 2
  61   33   35 am
  62   35   36 1
  63   35   63 1
  64   36   40 1
  65   36   37 2
  66   37   38 1
  67   38   39 2
  68   38   64 1
  69   39   40 1
  70   39   65 1

#	End of record

