#	Name: ASD01420020
#	Creating user name:	WinNT
#	Creation time:	15. 06. 2019 19:20

#	Modifying user name:	WinNT
#	Modification time:	15. 06. 2019 19:20

#	Program:	/corina/corina34_cracker 3.40 0067  02.08.2006

@<TRIPOS>MOLECULE
ASD01420020
  22   23    0    0    0
SMALL
NO_CHARGES


@<TRIPOS>ATOM
   1 C1            -0.0180     1.4763     0.0102 C.3     
   2 N2             0.0021    -0.0041     0.0020 N.3     
   3 C3             1.2737    -0.3385    -0.6784 C.3     
   4 C4             2.1992     0.8267    -0.4103 C.ar    
   5 C5             3.5724     0.9517    -0.5086 C.ar    
   6 C6             4.1829     2.1523    -0.1986 C.ar    
   7 C7             3.4152     3.2342     0.2116 C.ar    
   8 C8             2.0379     3.1064     0.3090 C.ar    
   9 C9             1.4320     1.9045    -0.0014 C.ar    
  10 O10            4.0127     4.4161     0.5175 O.3     
  11 C11            3.1605     5.4856     0.9323 C.3     
  12 Cl12           5.9076     2.3074    -0.3215 Cl      
  13 H13           -0.5283     1.8508    -0.8772 H       
  14 H14           -0.5112     1.8412     0.9111 H       
  15 H15           -0.0126    -0.3711     0.9418 H       
  16 H16            1.6927    -1.2554    -0.2638 H       
  17 H17            1.1092    -0.4499    -1.7501 H       
  18 H18            4.1690     0.1099    -0.8276 H       
  19 H19            1.4389     3.9465     0.6282 H       
  20 H20            2.4504     5.7135     0.1374 H       
  21 H21            2.6181     5.1905     1.8305 H       
  22 H22            3.7631     6.3685     1.1454 H       
@<TRIPOS>BOND
   1    1    2 1
   2    1    9 1
   3    1   13 1
   4    1   14 1
   5    2    3 1
   6    2   15 1
   7    3    4 1
   8    3   16 1
   9    3   17 1
  10    4    5 ar
  11    4    9 ar
  12    5    6 ar
  13    5   18 1
  14    6    7 ar
  15    6   12 1
  16    7    8 ar
  17    7   10 1
  18    8    9 ar
  19    8   19 1
  20   10   11 1
  21   11   20 1
  22   11   21 1
  23   11   22 1

#	End of record

