#	Name: ASD03091004
#	Creating user name:	WinNT
#	Creation time:	15. 06. 2019 20:29

#	Modifying user name:	WinNT
#	Modification time:	15. 06. 2019 20:29

#	Program:	/corina/corina34_cracker 3.40 0067  02.08.2006

@<TRIPOS>MOLECULE
ASD03091004
  44   46    0    0    0
SMALL
NO_CHARGES


@<TRIPOS>ATOM
   1 C1            -0.0183     1.5030     0.0798 C.2     
   2 C2             0.0022    -0.0037     0.0998 C.3     
   3 C3             1.4515    -0.4940     0.1036 C.3     
   4 O4             1.0269     2.1255     0.0694 O.2     
   5 N5            -1.1762     2.1507     0.0678 N.2     
   6 C6            -0.7097    -0.5067     1.3573 C.3     
   7 C7            -0.7145    -0.5400    -1.1410 C.3     
   8 S8             0.1650     4.5422     0.0393 S.3     
   9 C9            -1.1944     3.4850     0.0500 C.2     
  10 N10           -2.2863     4.2876     0.0362 N.pl3   
  11 C11           -2.0655     5.6297     0.0186 C.2     
  12 C12           -0.7996     6.0286     0.0165 C.2     
  13 O13           -7.4051     2.1768     0.0386 O.3     
  14 C14           -8.4603     3.0119     0.5275 C.3     
  15 C15           -8.3044     4.4019    -0.1040 C.3     
  16 O16           -7.0255     4.9241     0.2724 O.3     
  17 C17           -5.9625     4.0818     0.1570 C.ar    
  18 C18           -6.1516     2.7091     0.0421 C.ar    
  19 C19           -4.6790     4.6047     0.1540 C.ar    
  20 C20           -3.5847     3.7585     0.0394 C.ar    
  21 C21           -3.7765     2.3884    -0.0723 C.ar    
  22 C22           -5.0558     1.8667    -0.0709 C.ar    
  23 F23           -8.3805     4.2986    -1.4971 F       
  24 F24           -9.3157     5.2484     0.3630 F       
  25 F25           -9.6979     2.4669     0.1690 F       
  26 F26           -8.3744     3.1139     1.9201 F       
  27 C27           -0.2900     7.4467    -0.0014 C.3     
  28 O28            0.4041     7.7188     1.2177 O.3     
  29 H29            1.9620    -0.1119     0.9876 H       
  30 H30            1.4663    -1.5838     0.1181 H       
  31 H31            1.9586    -0.1357    -0.7922 H       
  32 H32           -1.7422    -0.1573     1.3546 H       
  33 H33           -0.6949    -1.5965     1.3718 H       
  34 H34           -0.1991    -0.1246     2.2413 H       
  35 H35           -0.2073    -0.1817    -2.0368 H       
  36 H36           -0.6997    -1.6299    -1.1265 H       
  37 H37           -1.7470    -0.1907    -1.1437 H       
  38 H38           -2.8815     6.3371     0.0064 H       
  39 H39           -4.5303     5.6709     0.2409 H       
  40 H40           -2.9251     1.7297    -0.1608 H       
  41 H41           -5.2027     0.8002    -0.1577 H       
  42 H42            0.3894     7.5780    -0.8435 H       
  43 H43           -1.1304     8.1335    -0.1021 H       
  44 H44            0.7603     8.6160     1.2757 H       
@<TRIPOS>BOND
   1    1    2 1
   2    1    4 2
   3    1    5 1
   4    2    3 1
   5    2    6 1
   6    2    7 1
   7    3   29 1
   8    3   30 1
   9    3   31 1
  10    5    9 2
  11    6   32 1
  12    6   33 1
  13    6   34 1
  14    7   35 1
  15    7   36 1
  16    7   37 1
  17    8    9 1
  18    8   12 1
  19    9   10 1
  20   10   11 1
  21   10   20 1
  22   11   12 2
  23   11   38 1
  24   12   27 1
  25   13   14 1
  26   13   18 1
  27   14   15 1
  28   14   25 1
  29   14   26 1
  30   15   16 1
  31   15   23 1
  32   15   24 1
  33   16   17 1
  34   17   18 ar
  35   17   19 ar
  36   18   22 ar
  37   19   20 ar
  38   19   39 1
  39   20   21 ar
  40   21   22 ar
  41   21   40 1
  42   22   41 1
  43   27   28 1
  44   27   42 1
  45   27   43 1
  46   28   44 1

#	End of record

