#	Name: ASD01231387
#	Creating user name:	WinNT
#	Creation time:	15. 06. 2019 19:15

#	Modifying user name:	WinNT
#	Modification time:	15. 06. 2019 19:15

#	Program:	/corina/corina34_cracker 3.40 0067  02.08.2006

@<TRIPOS>MOLECULE
ASD01231387
  48   50    0    0    0
SMALL
NO_CHARGES


@<TRIPOS>ATOM
   1 C1            -1.6004     1.7635     0.9186 C.3     
   2 C2            -1.7330     0.2651     1.1980 C.3     
   3 C3            -3.1962    -0.0713     1.4924 C.3     
   4 S4            -1.1771    -0.6719    -0.2524 S.o2    
   5 O5            -2.0666    -0.4766    -1.3431 O.2     
   6 O6             0.2280    -0.5431    -0.4208 O.2     
   7 N7            -1.3938    -2.2578     0.1724 N.am    
   8 C8            -1.5148    -3.4678     2.3304 C.3     
   9 C9            -0.6001    -2.8407     1.2571 C.3     
  10 C10            0.2046    -4.0582     0.7550 C.3     
  11 C11            0.2190    -5.0296     1.9159 C.ar    
  12 C12            1.0322    -6.1229     2.1592 C.ar    
  13 C13            0.8583    -6.8784     3.3081 C.ar    
  14 C14           -0.1340    -6.5360     4.2154 C.ar    
  15 C15           -0.9431    -5.4453     3.9701 C.ar    
  16 C16           -0.7691    -4.6903     2.8215 C.ar    
  17 O17            1.6573    -7.9519     3.5452 O.3     
  18 C18            1.4204    -8.6837     4.7495 C.3     
  19 C19            2.3946    -9.8298     4.8408 C.ar    
  20 C20            2.3583   -10.6935     5.9376 C.ar    
  21 C21            3.2646   -11.7527     6.0142 C.ar    
  22 C22            4.1892   -11.9394     5.0074 C.ar    
  23 C23            4.2196   -11.0800     3.9238 C.ar    
  24 C24            3.3205   -10.0315     3.8386 C.ar    
  25 C25            1.3961   -10.4934     6.9792 C.1     
  26 N26            0.6329   -10.3346     7.8054 N.1     
  27 H27           -1.9344     2.3266     1.7901 H       
  28 H28           -0.5579     2.0032     0.7089 H       
  29 H29           -2.2144     2.0283     0.0578 H       
  30 H30           -1.1190     0.0003     2.0588 H       
  31 H31           -3.8200     0.2647     0.6641 H       
  32 H32           -3.3038    -1.1491     1.6144 H       
  33 H33           -3.5072     0.4309     2.4085 H       
  34 H34           -2.0463    -2.8008    -0.2970 H       
  35 H35           -1.6724    -2.7664     3.1498 H       
  36 H36           -2.4693    -3.7580     1.8912 H       
  37 H37            0.0608    -2.0950     1.6989 H       
  38 H38           -0.2877    -4.5072    -0.1077 H       
  39 H39            1.2212    -3.7601     0.4986 H       
  40 H40            1.8039    -6.3883     1.4518 H       
  41 H41           -0.2732    -7.1221     5.1118 H       
  42 H42           -1.7154    -5.1791     4.6765 H       
  43 H43            1.5534    -8.0245     5.6073 H       
  44 H44            0.4019    -9.0721     4.7442 H       
  45 H45            3.2422   -12.4241     6.8598 H       
  46 H46            4.8912   -12.7581     5.0656 H       
  47 H47            4.9457   -11.2305     3.1386 H       
  48 H48            3.3468    -9.3669     2.9877 H       
@<TRIPOS>BOND
   1    1    2 1
   2    1   27 1
   3    1   28 1
   4    1   29 1
   5    2    3 1
   6    2    4 1
   7    2   30 1
   8    3   31 1
   9    3   32 1
  10    3   33 1
  11    4    5 2
  12    4    6 2
  13    4    7 am
  14    7    9 1
  15    7   34 1
  16    8    9 1
  17    8   16 1
  18    8   35 1
  19    8   36 1
  20    9   10 1
  21    9   37 1
  22   10   11 1
  23   10   38 1
  24   10   39 1
  25   11   12 ar
  26   11   16 ar
  27   12   13 ar
  28   12   40 1
  29   13   14 ar
  30   13   17 1
  31   14   15 ar
  32   14   41 1
  33   15   16 ar
  34   15   42 1
  35   17   18 1
  36   18   19 1
  37   18   43 1
  38   18   44 1
  39   19   20 ar
  40   19   24 ar
  41   20   21 ar
  42   20   25 1
  43   21   22 ar
  44   21   45 1
  45   22   23 ar
  46   22   46 1
  47   23   24 ar
  48   23   47 1
  49   24   48 1
  50   25   26 3

#	End of record

