#	Name: ASD02039314
#	Creating user name:	WinNT
#	Creation time:	15. 06. 2019 20:18

#	Modifying user name:	WinNT
#	Modification time:	15. 06. 2019 20:18

#	Program:	/corina/corina34_cracker 3.40 0067  02.08.2006

@<TRIPOS>MOLECULE
ASD02039314
  50   52    0    0    0
SMALL
NO_CHARGES


@<TRIPOS>ATOM
   1 C1            -0.2115     1.3552     0.3622 C.ar    
   2 C2             0.0581    -0.0014     0.3869 C.ar    
   3 C3            -0.9772    -0.9177     0.4134 C.ar    
   4 C4            -2.2891    -0.4816     0.4159 C.ar    
   5 C5            -2.5659     0.8865     0.3916 C.ar    
   6 C6            -1.5169     1.8034     0.3697 C.ar    
   7 C7            -3.9705     1.3622     0.3936 C.ar    
   8 C8             0.9231     2.3465     0.3333 C.3     
   9 N9             1.3746     2.5319    -1.0480 N.am    
  10 C10            0.6813     3.4792    -1.9243 C.3     
  11 C11            2.4278     1.8309    -1.5125 C.2     
  12 C12            3.0588     0.8024    -0.6672 C.2     
  13 C13            4.0468    -0.0584    -1.0465 C.2     
  14 C14            1.6298     4.6221    -2.2919 C.3     
  15 N15            2.7670     0.5425     0.6329 N.2     
  16 C16            3.5249    -0.4310     1.0480 C.2     
  17 N17            4.3320    -0.8282     0.0299 N.pl3   
  18 O18            2.8574     2.0473    -2.6296 O.2     
  19 C19            5.3311    -1.8981     0.0866 C.3     
  20 C20            0.2311     2.7605    -3.1978 C.3     
  21 C21           -4.2381     2.7265     0.4892 C.ar    
  22 N22           -4.9620     0.4858     0.2990 N.ar    
  23 C23           -6.2233     0.8673     0.2973 C.ar    
  24 C24           -6.5605     2.2044     0.3946 C.ar    
  25 C25           -5.5539     3.1552     0.4899 C.ar    
  26 C26           -8.0073     2.6261     0.3908 C.3     
  27 F27           -3.3005    -1.3769     0.4415 F       
  28 H28            1.0816    -0.3463     0.3850 H       
  29 H29           -0.7606    -1.9756     0.4319 H       
  30 H30           -1.7250     2.8630     0.3512 H       
  31 H31            0.5824     3.3006     0.7353 H       
  32 H32            1.7487     1.9715     0.9382 H       
  33 H33           -0.1897     3.8820    -1.4073 H       
  34 H34            4.5122    -0.1151    -2.0195 H       
  35 H35            2.4289     4.2408    -2.9276 H       
  36 H36            1.0776     5.3949    -2.8266 H       
  37 H37            2.0587     5.0447    -1.3833 H       
  38 H38            3.5157    -0.8529     2.0421 H       
  39 H39            4.8680    -2.8431    -0.1973 H       
  40 H40            6.1456    -1.6714    -0.6014 H       
  41 H41            5.7231    -1.9758     1.1007 H       
  42 H42           -0.3591     1.8838    -2.9309 H       
  43 H43           -0.3745     3.4362    -3.8016 H       
  44 H44            1.1064     2.4493    -3.7680 H       
  45 H45           -3.4299     3.4392     0.5621 H       
  46 H46           -7.0042     0.1254     0.2183 H       
  47 H47           -5.7922     4.2057     0.5670 H       
  48 H48           -8.3825     2.6466     1.4140 H       
  49 H49           -8.0949     3.6200    -0.0482 H       
  50 H50           -8.5910     1.9170    -0.1961 H       
@<TRIPOS>BOND
   1    1    2 ar
   2    1    8 1
   3    1    6 ar
   4    2    3 ar
   5    2   28 1
   6    3    4 ar
   7    3   29 1
   8    4    5 ar
   9    4   27 1
  10    5    6 ar
  11    5    7 1
  12    6   30 1
  13    7   21 ar
  14    7   22 ar
  15    8    9 1
  16    8   31 1
  17    8   32 1
  18    9   10 1
  19    9   11 am
  20   10   20 1
  21   10   14 1
  22   10   33 1
  23   11   12 1
  24   11   18 2
  25   12   13 2
  26   12   15 1
  27   13   17 1
  28   13   34 1
  29   14   35 1
  30   14   36 1
  31   14   37 1
  32   15   16 2
  33   16   17 1
  34   16   38 1
  35   17   19 1
  36   19   39 1
  37   19   40 1
  38   19   41 1
  39   20   42 1
  40   20   43 1
  41   20   44 1
  42   21   25 ar
  43   21   45 1
  44   22   23 ar
  45   23   24 ar
  46   23   46 1
  47   24   25 ar
  48   24   26 1
  49   25   47 1
  50   26   48 1
  51   26   49 1
  52   26   50 1

#	End of record

