#	Name: ASD01917370
#	Creating user name:	WinNT
#	Creation time:	15. 06. 2019 20:09

#	Modifying user name:	WinNT
#	Modification time:	15. 06. 2019 20:09

#	Program:	/corina/corina34_cracker 3.40 0067  02.08.2006

@<TRIPOS>MOLECULE
ASD01917370
  49   53    0    0    0
SMALL
NO_CHARGES


@<TRIPOS>ATOM
   1 C1            -0.0171     1.4097     0.0098 C.ar    
   2 C2             0.0021    -0.0041     0.0020 C.ar    
   3 C3            -1.1913    -0.7246     0.0401 C.ar    
   4 C4            -2.3838    -0.0616     0.0717 C.ar    
   5 C5            -2.4203     1.3391     0.0663 C.ar    
   6 C6            -1.2414     2.0759     0.0361 C.ar    
   7 N7             1.1596     2.0751     0.0021 N.2     
   8 C8             2.3197     1.4677    -0.0394 C.2     
   9 N9             2.4202     0.1196    -0.1564 N.am    
  10 C10            1.3105    -0.6630    -0.0613 C.2     
  11 O11            1.4019    -1.8765    -0.0294 O.2     
  12 C12           -3.7225     2.0391     0.0934 C.2     
  13 C13            3.5355     2.3454     0.1018 C.3     
  14 C14            4.7919     1.6927    -0.4308 C.3     
  15 C15            4.8967     0.2366    -0.0259 C.3     
  16 C16            3.6798    -0.5620    -0.4349 C.3     
  17 C17            6.1350    -0.3737    -0.6855 C.3     
  18 C18            5.0559     0.1545     1.4936 C.3     
  19 N19           -4.9489     1.4394     0.1245 N.pl3   
  20 C20           -5.8844     2.4314     0.1422 C.2     
  21 C21           -5.2089     3.6141     0.1216 C.2     
  22 N22           -3.8923     3.3410     0.0972 N.2     
  23 C23           -5.8181     4.9656     0.1303 C.ar    
  24 N24           -7.1387     5.0920     0.1606 N.ar    
  25 C25           -7.7193     6.2752     0.1693 C.ar    
  26 C26           -6.9676     7.4347     0.1470 C.ar    
  27 C27           -5.5823     7.3479     0.1150 C.ar    
  28 C28           -4.9990     6.0935     0.1123 C.ar    
  29 H29           -1.1719    -1.8044     0.0442 H       
  30 H30           -3.3071    -0.6212     0.1007 H       
  31 H31           -1.2740     3.1554     0.0325 H       
  32 H32            3.3639     3.2744    -0.4420 H       
  33 H33            3.6802     2.5791     1.1566 H       
  34 H34            4.7905     1.7580    -1.5188 H       
  35 H35            5.6594     2.2297    -0.0470 H       
  36 H36            3.6891    -1.5118     0.0998 H       
  37 H37            3.7383    -0.7653    -1.5042 H       
  38 H38            7.0241     0.1647    -0.3573 H       
  39 H39            6.2192    -1.4223    -0.4000 H       
  40 H40            6.0439    -0.2983    -1.7691 H       
  41 H41            4.1900     0.6092     1.9747 H       
  42 H42            5.1322    -0.8902     1.7950 H       
  43 H43            5.9591     0.6861     1.7934 H       
  44 H44           -5.1223     0.4850     0.1324 H       
  45 H45           -6.9566     2.3037     0.1675 H       
  46 H46           -8.7971     6.3396     0.1938 H       
  47 H47           -7.4533     8.3993     0.1540 H       
  48 H48           -4.9736     8.2398     0.0971 H       
  49 H49           -3.9243     5.9894     0.0881 H       
@<TRIPOS>BOND
   1    1    2 ar
   2    1    7 1
   3    1    6 ar
   4    2    3 ar
   5    2   10 1
   6    3    4 ar
   7    3   29 1
   8    4    5 ar
   9    4   30 1
  10    5    6 ar
  11    5   12 1
  12    6   31 1
  13    7    8 2
  14    8    9 1
  15    8   13 1
  16    9   10 am
  17    9   16 1
  18   10   11 2
  19   12   19 1
  20   12   22 2
  21   13   14 1
  22   13   32 1
  23   13   33 1
  24   14   15 1
  25   14   34 1
  26   14   35 1
  27   15   16 1
  28   15   17 1
  29   15   18 1
  30   16   36 1
  31   16   37 1
  32   17   38 1
  33   17   39 1
  34   17   40 1
  35   18   41 1
  36   18   42 1
  37   18   43 1
  38   19   20 1
  39   19   44 1
  40   20   21 2
  41   20   45 1
  42   21   22 1
  43   21   23 1
  44   23   24 ar
  45   23   28 ar
  46   24   25 ar
  47   25   26 ar
  48   25   46 1
  49   26   27 ar
  50   26   47 1
  51   27   28 ar
  52   27   48 1
  53   28   49 1

#	End of record

