#	Name: ASD02039402
#	Creating user name:	WinNT
#	Creation time:	15. 06. 2019 20:18

#	Modifying user name:	WinNT
#	Modification time:	15. 06. 2019 20:18

#	Program:	/corina/corina34_cracker 3.40 0067  02.08.2006

@<TRIPOS>MOLECULE
ASD02039402
  43   45    0    0    0
SMALL
NO_CHARGES


@<TRIPOS>ATOM
   1 C1             0.1727     0.8391    -0.2537 C.2     
   2 N2             0.6370    -0.3723    -0.1649 N.2     
   3 C3             0.9487     2.1090    -0.0168 C.3     
   4 N4             1.5496     2.5561    -1.2759 N.am    
   5 C5             0.8724     3.5661    -2.0928 C.3     
   6 C6             2.7255     2.0381    -1.6827 C.2     
   7 C7             3.4441     1.0794    -0.8254 C.2     
   8 C8             4.5795     0.3979    -1.1534 C.2     
   9 N9             3.1003     0.7176     0.4371 N.2     
  10 C10            3.9674    -0.1475     0.8779 C.2     
  11 N11            4.9000    -0.3689    -0.0847 N.pl3   
  12 O12            3.1935     2.3622    -2.7575 O.2     
  13 C13            6.0464    -1.2756     0.0152 C.3     
  14 C14            1.8183     4.7440    -2.3352 C.3     
  15 C15            0.4699     2.9508    -3.4345 C.3     
  16 O16           -0.2330    -1.1798    -0.4139 O.3     
  17 C17           -1.3778    -0.5387    -0.6957 C.2     
  18 N18           -1.1211     0.7540    -0.6000 N.2     
  19 C19           -2.6720    -1.1578    -1.0504 C.ar    
  20 C20           -2.7890    -2.5472    -1.1178 C.ar    
  21 C21           -3.7837    -0.3556    -1.3138 C.ar    
  22 C22           -4.9889    -0.9391    -1.6439 C.ar    
  23 C23           -5.0977    -2.3180    -1.7138 C.ar    
  24 C24           -3.9995    -3.1192    -1.4489 C.ar    
  25 Cl25          -6.6183    -3.0453    -2.1294 Cl      
  26 H26            0.2769     2.8806     0.3592 H       
  27 H27            1.7347     1.9233     0.7152 H       
  28 H28           -0.0186     3.9169    -1.5720 H       
  29 H29            5.1192     0.4584    -2.0869 H       
  30 H30            3.9500    -0.6119     1.8529 H       
  31 H31            5.7583    -2.2658    -0.3379 H       
  32 H32            6.8646    -0.8955    -0.5964 H       
  33 H33            6.3691    -1.3400     1.0544 H       
  34 H34            2.6529     4.4180    -2.9559 H       
  35 H35            1.2794     5.5444    -2.8422 H       
  36 H36            2.1965     5.1088    -1.3802 H       
  37 H37           -0.2282     2.1313    -3.2636 H       
  38 H38           -0.0064     3.7105    -4.0543 H       
  39 H39            1.3574     2.5723    -3.9415 H       
  40 H40           -1.9333    -3.1730    -0.9114 H       
  41 H41           -3.7003     0.7198    -1.2588 H       
  42 H42           -5.8497    -0.3196    -1.8478 H       
  43 H43           -4.0904    -4.1939    -1.5050 H       
@<TRIPOS>BOND
   1    1    2 2
   2    1    3 1
   3    1   18 1
   4    2   16 1
   5    3    4 1
   6    3   26 1
   7    3   27 1
   8    4    5 1
   9    4    6 am
  10    5   14 1
  11    5   15 1
  12    5   28 1
  13    6    7 1
  14    6   12 2
  15    7    8 2
  16    7    9 1
  17    8   11 1
  18    8   29 1
  19    9   10 2
  20   10   11 1
  21   10   30 1
  22   11   13 1
  23   13   31 1
  24   13   32 1
  25   13   33 1
  26   14   34 1
  27   14   35 1
  28   14   36 1
  29   15   37 1
  30   15   38 1
  31   15   39 1
  32   16   17 1
  33   17   18 2
  34   17   19 1
  35   19   20 ar
  36   19   21 ar
  37   20   24 ar
  38   20   40 1
  39   21   22 ar
  40   21   41 1
  41   22   23 ar
  42   22   42 1
  43   23   24 ar
  44   23   25 1
  45   24   43 1

#	End of record

