#	Name: ASD01814562
#	Creating user name:	WinNT
#	Creation time:	15. 06. 2019 19:32

#	Modifying user name:	WinNT
#	Modification time:	15. 06. 2019 19:32

#	Program:	/corina/corina34_cracker 3.40 0067  02.08.2006

@<TRIPOS>MOLECULE
ASD01814562
  55   58    0    0    0
SMALL
NO_CHARGES


@<TRIPOS>ATOM
   1 C1            -0.0168     1.3882     0.0097 C.ar    
   2 C2             0.0021    -0.0041     0.0020 C.ar    
   3 C3             1.1795    -0.6891    -0.0124 C.ar    
   4 C4             2.3944     0.0147    -0.0202 C.ar    
   5 C5             2.3745     1.4312    -0.0129 C.ar    
   6 C6             1.1424     2.1038     0.0024 C.ar    
   7 C7             3.6273    -0.6667    -0.0345 C.ar    
   8 C8             4.7911     0.0287    -0.0410 C.ar    
   9 C9             4.7929     1.4362    -0.0341 C.ar    
  10 C10            3.5923     2.1420    -0.0203 C.ar    
  11 O11            3.5945     3.4965    -0.0140 O.3     
  12 C12            6.0721     2.1670    -0.0414 C.2     
  13 O13            6.0777     3.3832    -0.0354 O.2     
  14 C14            3.6526    -2.1735    -0.0423 C.3     
  15 C15            3.5246    -2.6708    -1.4591 C.ar    
  16 C16            4.6553    -2.8818    -2.2336 C.ar    
  17 C17            4.4903    -3.3397    -3.5314 C.ar    
  18 C18            3.2117    -3.5695    -4.0076 C.ar    
  19 N19            2.1584    -3.3574    -3.2412 N.ar    
  20 C20            2.2793    -2.9275    -2.0003 C.ar    
  21 Cl21           2.9905    -4.1425    -5.6313 Cl      
  22 N22            7.2362     1.4879    -0.0548 N.am    
  23 C23            3.5844     4.1511    -1.2841 C.3     
  24 C24            8.5082     2.2146    -0.0621 C.3     
  25 C25            9.5942     1.3354    -0.6854 C.3     
  26 C26           10.9227     2.0944    -0.6931 C.3     
  27 C27           11.3155     2.4494     0.7424 C.3     
  28 C28           10.2295     3.3285     1.3658 C.3     
  29 C29            8.9010     2.5696     1.3734 C.3     
  30 O30            9.2274     1.0039    -2.0261 O.3     
  31 H31           -0.9635     1.9079     0.0170 H       
  32 H32           -0.9304    -0.5489     0.0080 H       
  33 H33            1.1785    -1.7691    -0.0175 H       
  34 H34            1.1136     3.1834     0.0085 H       
  35 H35            5.7301    -0.5049    -0.0514 H       
  36 H36            4.5938    -2.5232     0.3819 H       
  37 H37            2.8223    -2.5539     0.5527 H       
  38 H38            5.6413    -2.6934    -1.8351 H       
  39 H39            5.3487    -3.5146    -4.1630 H       
  40 H40            1.3942    -2.7656    -1.4030 H       
  41 H41            7.2317     0.5179    -0.0596 H       
  42 H42            4.4690     3.8595    -1.8503 H       
  43 H43            2.6891     3.8623    -1.8347 H       
  44 H44            3.5874     5.2311    -1.1363 H       
  45 H45            8.4011     3.1287    -0.6461 H       
  46 H46            9.7014     0.4214    -0.1014 H       
  47 H47           11.6964     1.4681    -1.1371 H       
  48 H48           10.8156     3.0085    -1.2771 H       
  49 H49           11.4226     1.5353     1.3264 H       
  50 H50           12.2619     2.9901     0.7370 H       
  51 H51           10.5093     3.5815     2.3884 H       
  52 H52           10.1223     4.2426     0.7818 H       
  53 H53            8.1273     3.1959     1.8175 H       
  54 H54            9.0081     1.6555     1.9574 H       
  55 H55            9.8717     0.4467    -2.4839 H       
@<TRIPOS>BOND
   1    1    2 ar
   2    1    6 ar
   3    1   31 1
   4    2    3 ar
   5    2   32 1
   6    3    4 ar
   7    3   33 1
   8    4    5 ar
   9    4    7 ar
  10    5    6 ar
  11    5   10 ar
  12    6   34 1
  13    7    8 ar
  14    7   14 1
  15    8    9 ar
  16    8   35 1
  17    9   10 ar
  18    9   12 1
  19   10   11 1
  20   11   23 1
  21   12   13 2
  22   12   22 am
  23   14   15 1
  24   14   36 1
  25   14   37 1
  26   15   16 ar
  27   15   20 ar
  28   16   17 ar
  29   16   38 1
  30   17   18 ar
  31   17   39 1
  32   18   19 ar
  33   18   21 1
  34   19   20 ar
  35   20   40 1
  36   22   24 1
  37   22   41 1
  38   23   42 1
  39   23   43 1
  40   23   44 1
  41   24   25 1
  42   24   29 1
  43   24   45 1
  44   25   26 1
  45   25   30 1
  46   25   46 1
  47   26   27 1
  48   26   47 1
  49   26   48 1
  50   27   28 1
  51   27   49 1
  52   27   50 1
  53   28   29 1
  54   28   51 1
  55   28   52 1
  56   29   53 1
  57   29   54 1
  58   30   55 1

#	End of record

