#	Name: ASD00071041
#	Creating user name:	WinNT
#	Creation time:	15. 06. 2019 18:30

#	Modifying user name:	WinNT
#	Modification time:	15. 06. 2019 18:30

#	Program:	/corina/corina34_cracker 3.40 0067  02.08.2006

@<TRIPOS>MOLECULE
ASD00071041
  35   37    0    0    0
SMALL
NO_CHARGES


@<TRIPOS>ATOM
   1 N1             2.6304     1.0883    -0.0582 N.ar    
   2 C2             2.4049    -0.1916     0.1590 C.ar    
   3 C3             1.1036    -0.7139     0.1904 C.ar    
   4 C4             0.0381     0.1121    -0.0065 C.ar    
   5 C5             0.2883     1.4796    -0.2376 C.ar    
   6 C6            -0.7607     2.3895    -0.4482 C.ar    
   7 C7            -0.4425     3.7021    -0.6658 C.ar    
   8 C8             0.8906     4.0986    -0.6734 C.ar    
   9 N9             1.8670     3.2442    -0.4765 N.ar    
  10 C10            1.6251     1.9478    -0.2582 C.ar    
  11 N11            3.4795    -1.0422     0.3607 N.pl3   
  12 C12            0.8847    -2.1838     0.4407 C.3     
  13 C13            0.8580    -2.4421     1.9251 C.ar    
  14 C14           -0.3038    -2.2146     2.6487 C.ar    
  15 C15           -0.3252    -2.4533     4.0149 C.ar    
  16 C16            0.8099    -2.9168     4.6519 C.ar    
  17 C17            1.9663    -3.1423     3.9288 C.ar    
  18 C18            1.9884    -2.9109     2.5656 C.ar    
  19 O19           -1.4189    -1.7582     2.0199 O.3     
  20 C20           -2.5785    -1.5465     2.8278 C.3     
  21 H21           -0.9714    -0.2711     0.0136 H       
  22 H22           -1.7898     2.0620    -0.4389 H       
  23 H23           -1.2244     4.4284    -0.8317 H       
  24 H24            1.1287     5.1377    -0.8463 H       
  25 H25            4.3757    -0.6804     0.4430 H       
  26 H26            3.3357    -1.9997     0.4197 H       
  27 H27           -0.0648    -2.4897     0.0015 H       
  28 H28            1.6953    -2.7542    -0.0129 H       
  29 H29           -1.2282    -2.2766     4.5804 H       
  30 H30            0.7937    -3.1028     5.7156 H       
  31 H31            2.8528    -3.5040     4.4286 H       
  32 H32            2.8917    -3.0924     2.0021 H       
  33 H33           -2.8707    -2.4859     3.2972 H       
  34 H34           -2.3545    -0.8093     3.5988 H       
  35 H35           -3.3947    -1.1829     2.2036 H       
@<TRIPOS>BOND
   1    1    2 ar
   2    1   10 ar
   3    2    3 ar
   4    2   11 1
   5    3    4 ar
   6    3   12 1
   7    4    5 ar
   8    4   21 1
   9    5    6 ar
  10    5   10 ar
  11    6    7 ar
  12    6   22 1
  13    7    8 ar
  14    7   23 1
  15    8    9 ar
  16    8   24 1
  17    9   10 ar
  18   11   25 1
  19   11   26 1
  20   12   13 1
  21   12   27 1
  22   12   28 1
  23   13   14 ar
  24   13   18 ar
  25   14   15 ar
  26   14   19 1
  27   15   16 ar
  28   15   29 1
  29   16   17 ar
  30   16   30 1
  31   17   18 ar
  32   17   31 1
  33   18   32 1
  34   19   20 1
  35   20   33 1
  36   20   34 1
  37   20   35 1

#	End of record

