#	Name: ASD04230016
#	Creating user name:	WinNT
#	Creation time:	15. 06. 2019 20:48

#	Modifying user name:	WinNT
#	Modification time:	15. 06. 2019 20:48

#	Program:	/corina/corina34_cracker 3.40 0067  02.08.2006

@<TRIPOS>MOLECULE
ASD04230016
  61   66    0    0    0
SMALL
NO_CHARGES


@<TRIPOS>ATOM
   1 C1             0.8144     1.4351     0.2584 C.ar    
   2 C2             0.7458     0.0459     0.2072 C.ar    
   3 C3             1.9007    -0.7081     0.1627 C.ar    
   4 C4             3.1504    -0.0713     0.1798 C.ar    
   5 C5             3.2182     1.3331     0.1988 C.ar    
   6 C6             2.0400     2.0786     0.2515 C.ar    
   7 C7             4.3466    -0.8352     0.1735 C.2     
   8 C8             5.5450    -0.1690     0.3929 C.2     
   9 C9             5.4734     1.2815     0.6470 C.2     
  10 O10            4.4187     1.9598     0.1433 O.3     
  11 C11            6.8334    -0.8815     0.3732 C.2     
  12 N12            7.9799    -0.2069     0.5899 N.am    
  13 O13            6.8630    -2.0789     0.1615 O.2     
  14 C14            9.1911    -0.8995     0.6867 C.ar    
  15 C15           10.3603    -0.3260     0.2023 C.ar    
  16 C16           11.5590    -1.0077     0.2959 C.ar    
  17 C17           11.6015    -2.2617     0.8715 C.ar    
  18 C18           10.4335    -2.8446     1.3606 C.ar    
  19 C19            9.2266    -2.1567     1.2716 C.ar    
  20 C20           10.4775    -4.1929     1.9792 C.2     
  21 O21            6.3363     1.8496     1.2900 O.2     
  22 N22            2.0972     3.4754     0.2970 N.3     
  23 C23           11.6012    -4.9251     2.2174 C.2     
  24 N24           11.2015    -6.0978     2.7944 N.pl3   
  25 C25            9.8345    -6.0549     2.8961 C.2     
  26 N26            9.4172    -4.8974     2.4052 N.2     
  27 C27           11.8936    -7.1885     3.2365 C.2     
  28 C28           11.2455    -8.2404     3.7792 C.2     
  29 C29            9.8457    -8.2267     3.8968 C.2     
  30 C30            9.1434    -7.1464     3.4614 C.2     
  31 C31            2.7140     3.9369     1.5491 C.3     
  32 C32            2.8109     5.4647     1.5311 C.3     
  33 O33            1.5068     6.0177     1.3340 O.3     
  34 C34            0.8769     5.5898     0.1235 C.3     
  35 C35            0.7604     4.0632     0.1272 C.3     
  36 O36           -0.4654    -0.5714     0.2015 O.3     
  37 C37           -0.4654    -1.9994     0.1479 C.3     
  38 H38           -0.0954     2.0154     0.2992 H       
  39 H39            1.8425    -1.7855     0.1151 H       
  40 H40            4.3254    -1.9015     0.0036 H       
  41 H41            7.9650     0.7589     0.6786 H       
  42 H42           10.3323     0.6548    -0.2489 H       
  43 H43           12.4651    -0.5581    -0.0827 H       
  44 H44           12.5399    -2.7915     0.9425 H       
  45 H45            8.3191    -2.6041     1.6494 H       
  46 H46           12.6166    -4.6338     1.9927 H       
  47 H47           12.9699    -7.2099     3.1506 H       
  48 H48           11.8055    -9.0968     4.1245 H       
  49 H49            9.3296    -9.0700     4.3313 H       
  50 H50            8.0671    -7.1250     3.5472 H       
  51 H51            2.1025     3.6209     2.3942 H       
  52 H52            3.7127     3.5100     1.6419 H       
  53 H53            3.2150     5.8150     2.4809 H       
  54 H54            3.4659     5.7784     0.7183 H       
  55 H55           -0.1177     6.0305     0.0552 H       
  56 H56            1.4756     5.9070    -0.7303 H       
  57 H57            0.3330     3.7285    -0.8179 H       
  58 H58            0.1176     3.7492     0.9496 H       
  59 H59            0.0355    -2.3289    -0.7624 H       
  60 H60            0.0612    -2.3956     1.0161 H       
  61 H61           -1.4930    -2.3630     0.1491 H       
@<TRIPOS>BOND
   1    1    2 ar
   2    1    6 ar
   3    1   38 1
   4    2    3 ar
   5    2   36 1
   6    3    4 ar
   7    3   39 1
   8    4    5 ar
   9    4    7 1
  10    5    6 ar
  11    5   10 1
  12    6   22 1
  13    7    8 2
  14    7   40 1
  15    8    9 1
  16    8   11 1
  17    9   10 1
  18    9   21 2
  19   11   12 am
  20   11   13 2
  21   12   14 1
  22   12   41 1
  23   14   15 ar
  24   14   19 ar
  25   15   16 ar
  26   15   42 1
  27   16   17 ar
  28   16   43 1
  29   17   18 ar
  30   17   44 1
  31   18   19 ar
  32   18   20 1
  33   19   45 1
  34   20   23 2
  35   20   26 1
  36   22   31 1
  37   22   35 1
  38   23   24 1
  39   23   46 1
  40   24   25 1
  41   24   27 1
  42   25   26 2
  43   25   30 1
  44   27   28 2
  45   27   47 1
  46   28   29 1
  47   28   48 1
  48   29   30 2
  49   29   49 1
  50   30   50 1
  51   31   32 1
  52   31   51 1
  53   31   52 1
  54   32   33 1
  55   32   53 1
  56   32   54 1
  57   33   34 1
  58   34   35 1
  59   34   55 1
  60   34   56 1
  61   35   57 1
  62   35   58 1
  63   36   37 1
  64   37   59 1
  65   37   60 1
  66   37   61 1

#	End of record

