#	Name: ASD00310001
#	Creating user name:	WinNT
#	Creation time:	15. 06. 2019 18:33

#	Modifying user name:	WinNT
#	Modification time:	15. 06. 2019 18:33

#	Program:	/corina/corina34_cracker 3.40 0067  02.08.2006

@<TRIPOS>MOLECULE
ASD00310001
  38   41    0    0    0
SMALL
NO_CHARGES


@<TRIPOS>ATOM
   1 C1            -0.0167     1.3793     0.0096 C.2     
   2 C2             0.0021    -0.0041     0.0020 C.2     
   3 C3             1.2555    -0.6773    -0.0133 C.2     
   4 C4             2.4353     0.0701    -0.0203 C.2     
   5 C5             2.3581     1.4831    -0.0120 C.2     
   6 N6             1.1635     2.0940     0.0022 N.am    
   7 C7            -1.3441    -0.5746     0.0123 C.2     
   8 C8            -2.3228     0.3267     0.0268 C.2     
   9 S9            -1.6798     1.9569     0.0359 S.3     
  10 C10            3.7082    -0.5858    -0.0352 C.1     
  11 N11            4.7179    -1.1061    -0.0470 N.1     
  12 O12            3.3803     2.1475    -0.0179 O.2     
  13 C13           -2.0721    -4.7654    -0.0039 C.ar    
  14 C14           -2.7086    -3.9506     0.9326 C.ar    
  15 C15           -2.4727    -2.5939     0.9385 C.ar    
  16 C16           -1.5973    -2.0340     0.0070 C.ar    
  17 C17           -0.9608    -2.8493    -0.9298 C.ar    
  18 C18           -1.1967    -4.2061    -0.9348 C.ar    
  19 C19           -2.3216    -6.2267    -0.0059 C.ar    
  20 C20           -2.6618    -6.8797    -1.1952 C.ar    
  21 C21           -2.8932    -8.2454    -1.1878 C.ar    
  22 C22           -2.7879    -8.9594    -0.0087 C.ar    
  23 C23           -2.4520    -8.3163     1.1693 C.ar    
  24 C24           -2.2126    -6.9568     1.1755 C.ar    
  25 O25           -2.7654    -6.1770    -2.3533 O.3     
  26 O26            1.3039    -2.0280    -0.0205 O.3     
  27 H27            1.1287     3.0633     0.0074 H       
  28 H28           -3.3754     0.0853     0.0360 H       
  29 H29           -3.3866    -4.3839     1.6530 H       
  30 H30           -2.9658    -1.9631     1.6633 H       
  31 H31           -0.2829    -2.4163    -1.6506 H       
  32 H32           -0.7041    -4.8371    -1.6598 H       
  33 H33           -3.1565    -8.7530    -2.1040 H       
  34 H34           -2.9691   -10.0241    -0.0070 H       
  35 H35           -2.3721    -8.8808     2.0866 H       
  36 H36           -1.9456    -6.4591     2.0960 H       
  37 H37           -1.9399    -6.1192    -2.8534 H       
  38 H38            2.2008    -2.3894    -0.0309 H       
@<TRIPOS>BOND
   1    1    2 2
   2    1    6 1
   3    1    9 1
   4    2    3 1
   5    2    7 1
   6    3    4 2
   7    3   26 1
   8    4    5 1
   9    4   10 1
  10    5    6 am
  11    5   12 2
  12    6   27 1
  13    7    8 2
  14    7   16 1
  15    8    9 1
  16    8   28 1
  17   10   11 3
  18   13   14 ar
  19   13   18 ar
  20   13   19 1
  21   14   15 ar
  22   14   29 1
  23   15   16 ar
  24   15   30 1
  25   16   17 ar
  26   17   18 ar
  27   17   31 1
  28   18   32 1
  29   19   20 ar
  30   19   24 ar
  31   20   21 ar
  32   20   25 1
  33   21   22 ar
  34   21   33 1
  35   22   23 ar
  36   22   34 1
  37   23   24 ar
  38   23   35 1
  39   24   36 1
  40   25   37 1
  41   26   38 1

#	End of record

