#	Name: ASD01948343
#	Creating user name:	WinNT
#	Creation time:	15. 06. 2019 20:14

#	Modifying user name:	WinNT
#	Modification time:	15. 06. 2019 20:14

#	Program:	/corina/corina34_cracker 3.40 0067  02.08.2006

@<TRIPOS>MOLECULE
ASD01948343
  53   55    0    0    0
SMALL
NO_CHARGES


@<TRIPOS>ATOM
   1 C1             0.0566     1.3631     0.8630 C.2     
   2 N2             0.1814     0.0216     1.0782 N.am    
   3 C3             1.3761    -0.5900     0.9807 C.2     
   4 C4             2.4077     1.5084     0.4329 C.2     
   5 C5             1.1349     2.1171     0.5444 C.2     
   6 C6             2.5635     2.7798    -2.0466 C.ar    
   7 C7             3.5737     2.9510    -1.1100 C.ar    
   8 N8             3.5242     2.2645     0.1079 N.pl3   
   9 C9             2.6151     3.4588    -3.2489 C.ar    
  10 C10            3.6717     4.3086    -3.5209 C.ar    
  11 C11            4.6811     4.4825    -2.5905 C.ar    
  12 C12            4.6358     3.8064    -1.3856 C.ar    
  13 N13            0.9910     3.4968     0.3252 N.am    
  14 S14           -0.5100     4.1933     0.3895 S.o2    
  15 C15           -1.0238     4.0027     2.1187 C.3     
  16 O16            1.4618    -1.7931     1.1778 O.2     
  17 C17           -1.0051    -0.7661     1.4218 C.3     
  18 F18            5.6212     3.9761    -0.4771 F       
  19 I19            3.7441     5.3351    -5.3458 I       
  20 O20           -0.2746     5.5617     0.0872 O.2     
  21 O21           -1.3094     3.3823    -0.4605 O.2     
  22 C22            2.5209     0.1461     0.6538 C.2     
  23 F23            3.7217    -0.4651     0.5556 F       
  24 C24           -2.3594     4.6244     2.5315 C.3     
  25 C25           -2.2300     3.1053     2.4025 C.3     
  26 C26            0.1080     4.0121     3.1483 C.3     
  27 C27            0.8061     5.3734     3.1263 C.3     
  28 C28           -0.1606     6.4504     3.6225 C.3     
  29 C29            2.0343     5.3314     4.0377 C.3     
  30 O30            2.7513     6.5626     3.9278 O.3     
  31 O31            0.4633     7.7323     3.5245 O.3     
  32 H32           -0.9147     1.8283     0.9433 H       
  33 H33            1.7400     2.1131    -1.8374 H       
  34 H34            4.2706     2.3173     0.7250 H       
  35 H35            1.8293     3.3252    -3.9776 H       
  36 H36            5.5051     5.1467    -2.8060 H       
  37 H37            1.7709     4.0418     0.1361 H       
  38 H38           -1.4713    -1.1375     0.5093 H       
  39 H39           -0.7130    -1.6081     2.0493 H       
  40 H40           -1.7137    -0.1386     1.9625 H       
  41 H41           -2.4320     5.0397     3.5367 H       
  42 H42           -2.9294     5.1479     1.7640 H       
  43 H43           -2.7149     2.6295     1.5501 H       
  44 H44           -2.2175     2.5213     3.3227 H       
  45 H45           -0.3027     3.8304     4.1414 H       
  46 H46            0.8277     3.2307     2.9042 H       
  47 H47            1.1173     5.6057     2.1078 H       
  48 H48           -1.0631     6.4380     3.0114 H       
  49 H49           -0.4228     6.2524     4.6618 H       
  50 H50            1.7159     5.1873     5.0701 H       
  51 H51            2.6809     4.5065     3.7384 H       
  52 H52            3.5441     6.6067     4.4797 H       
  53 H53           -0.1183     8.4711     3.7503 H       
@<TRIPOS>BOND
   1    1    2 1
   2    1    5 2
   3    1   32 1
   4    2    3 am
   5    2   17 1
   6    3   22 1
   7    3   16 2
   8    4    5 1
   9    4    8 1
  10    4   22 2
  11    5   13 1
  12    6    7 ar
  13    6    9 ar
  14    6   33 1
  15    7    8 1
  16    7   12 ar
  17    8   34 1
  18    9   10 ar
  19    9   35 1
  20   10   11 ar
  21   10   19 1
  22   11   12 ar
  23   11   36 1
  24   12   18 1
  25   13   14 am
  26   13   37 1
  27   14   15 1
  28   14   20 2
  29   14   21 2
  30   15   24 1
  31   15   26 1
  32   15   25 1
  33   17   38 1
  34   17   39 1
  35   17   40 1
  36   22   23 1
  37   24   25 1
  38   24   41 1
  39   24   42 1
  40   25   43 1
  41   25   44 1
  42   26   27 1
  43   26   45 1
  44   26   46 1
  45   27   28 1
  46   27   29 1
  47   27   47 1
  48   28   31 1
  49   28   48 1
  50   28   49 1
  51   29   30 1
  52   29   50 1
  53   29   51 1
  54   30   52 1
  55   31   53 1

#	End of record

