#	Name: ASD08178053
#	Creating user name:	WinNT
#	Creation time:	15. 06. 2019 21:18

#	Modifying user name:	WinNT
#	Modification time:	15. 06. 2019 21:18

#	Program:	/corina/corina34_cracker 3.40 0067  02.08.2006

@<TRIPOS>MOLECULE
ASD08178053
  79   80    0    0    0
SMALL
NO_CHARGES


@<TRIPOS>ATOM
   1 N1            -0.0162     1.3436     0.0094 N.am    
   2 C2             4.4274    12.0559    15.2903 C.3     
   3 N3             0.7137     6.0249     1.7371 N.2     
   4 N4             0.6990     7.1924     2.2173 N.2     
   5 C5             1.8415     5.5779     1.2732 C.2     
   6 S6             3.0355     6.7904     1.4701 S.3     
   7 C7             1.8208     7.8397     2.2015 C.2     
   8 N8             2.0460     4.3227     0.7103 N.am    
   9 C9             1.0208     3.4534     0.6114 C.2     
  10 O10           -0.0800     3.7657     1.0132 O.2     
  11 C11            1.2424     2.0932     0.0014 C.3     
  12 C12            2.0475     9.2380     2.7156 C.3     
  13 C13            2.4490     9.1802     4.1909 C.3     
  14 S14            2.7219    10.8634     4.8097 S.3     
  15 C15            3.1812    10.5913     6.5434 C.3     
  16 C16            3.4487    11.9384     7.2176 C.3     
  17 C17            3.8303    11.7124     8.6578 C.2     
  18 N18            5.0307    11.5366     9.1116 N.2     
  19 S19            2.7232    11.6472    10.0296 S.3     
  20 C20            4.0577    11.3759    11.0689 C.2     
  21 N21            5.1439    11.3621    10.3568 N.2     
  22 N22            3.9898    11.2038    12.4473 N.am    
  23 C23            5.1168    10.9965    13.1568 C.2     
  24 O24            6.1901    10.9602    12.5933 O.2     
  25 C25            5.0432    10.8100    14.6504 C.3     
  26 C26            0.0021    -0.0041     0.0020 C.2     
  27 O27           -1.1546    -0.6931     0.0094 O.3     
  28 C28            1.7312     2.2539    -1.4395 C.3     
  29 O29            1.0625    -0.5972    -0.0113 O.2     
  30 C30           -1.0590    -2.1419     0.0007 C.3     
  31 C31           -0.2938    -2.6099     1.2402 C.3     
  32 C32           -2.4647    -2.7459     0.0108 C.3     
  33 C33           -0.3177    -2.5965    -1.2582 C.3     
  34 N34            6.3919    10.6031    15.1838 N.am    
  35 C35            6.5635     9.9351    16.3417 C.2     
  36 O36            5.5996     9.5046    16.9434 O.2     
  37 O37            7.8030     9.7449    16.8318 O.3     
  38 C38            7.9124     9.0170    18.0834 C.3     
  39 C39            7.3185     7.6173    17.9129 C.3     
  40 C40            9.3859     8.9011    18.4788 C.3     
  41 C41            7.1482     9.7655    19.1773 C.3     
  42 H42           -0.8627     1.8170     0.0241 H       
  43 H43            3.4239    12.2099    14.8935 H       
  44 H44            4.3741    11.9210    16.3706 H       
  45 H45            5.0453    12.9245    15.0626 H       
  46 H46            2.9265     4.0728     0.3890 H       
  47 H47            1.9909     1.5528     0.5809 H       
  48 H48            2.8432     9.7119     2.1408 H       
  49 H49            1.1297     9.8168     2.6113 H       
  50 H50            1.6533     8.7063     4.7657 H       
  51 H51            3.3667     8.6015     4.2952 H       
  52 H52            2.3672    10.0821     7.0593 H       
  53 H53            4.0806     9.9773     6.5889 H       
  54 H54            4.2627    12.4476     6.7017 H       
  55 H55            2.5493    12.5524     7.1721 H       
  56 H56            3.1313    11.2328    12.8980 H       
  57 H57            4.4252     9.9415    14.8781 H       
  58 H58            0.9827     2.7944    -2.0189 H       
  59 H59            2.6676     2.8117    -1.4454 H       
  60 H60            1.8914     1.2702    -1.8806 H       
  61 H61           -0.8219    -2.2860     2.1370 H       
  62 H62           -0.2220    -3.6975     1.2336 H       
  63 H63            0.7076    -2.1796     1.2329 H       
  64 H64           -3.0098    -2.4124    -0.8722 H       
  65 H65           -2.3929    -3.8335     0.0043 H       
  66 H66           -2.9928    -2.4220     0.9077 H       
  67 H67            0.6838    -2.1662    -1.2654 H       
  68 H68           -0.2459    -3.6841    -1.2647 H       
  69 H69           -0.8628    -2.2631    -2.1412 H       
  70 H70            7.1613    10.9467    14.7035 H       
  71 H71            7.8629     7.0840    17.1336 H       
  72 H72            7.4006     7.0708    18.8525 H       
  73 H73            6.2688     7.6999    17.6312 H       
  74 H74            9.8090     9.8982    18.6003 H       
  75 H75            9.4680     8.3546    19.4184 H       
  76 H76            9.9303     8.3678    17.6995 H       
  77 H77            6.0984     9.8481    18.8956 H       
  78 H78            7.2303     9.2191    20.1168 H       
  79 H79            7.5713    10.7627    19.2987 H       
@<TRIPOS>BOND
   1    1   26 am
   2    1   11 1
   3    1   42 1
   4    2   25 1
   5    2   43 1
   6    2   44 1
   7    2   45 1
   8    3    4 1
   9    3    5 2
  10    4    7 2
  11    5    6 1
  12    5    8 1
  13    6    7 1
  14    7   12 1
  15    8    9 am
  16    8   46 1
  17    9   10 2
  18    9   11 1
  19   11   28 1
  20   11   47 1
  21   12   13 1
  22   12   48 1
  23   12   49 1
  24   13   14 1
  25   13   50 1
  26   13   51 1
  27   14   15 1
  28   15   16 1
  29   15   52 1
  30   15   53 1
  31   16   17 1
  32   16   54 1
  33   16   55 1
  34   17   18 2
  35   17   19 1
  36   18   21 1
  37   19   20 1
  38   20   21 2
  39   20   22 1
  40   22   23 am
  41   22   56 1
  42   23   24 2
  43   23   25 1
  44   25   34 1
  45   25   57 1
  46   26   27 1
  47   26   29 2
  48   27   30 1
  49   28   58 1
  50   28   59 1
  51   28   60 1
  52   30   31 1
  53   30   32 1
  54   30   33 1
  55   31   61 1
  56   31   62 1
  57   31   63 1
  58   32   64 1
  59   32   65 1
  60   32   66 1
  61   33   67 1
  62   33   68 1
  63   33   69 1
  64   34   35 am
  65   34   70 1
  66   35   36 2
  67   35   37 1
  68   37   38 1
  69   38   39 1
  70   38   40 1
  71   38   41 1
  72   39   71 1
  73   39   72 1
  74   39   73 1
  75   40   74 1
  76   40   75 1
  77   40   76 1
  78   41   77 1
  79   41   78 1
  80   41   79 1

#	End of record

