#	Name: ASD01881484
#	Creating user name:	WinNT
#	Creation time:	15. 06. 2019 19:42

#	Modifying user name:	WinNT
#	Modification time:	15. 06. 2019 19:42

#	Program:	/corina/corina34_cracker 3.40 0067  02.08.2006

@<TRIPOS>MOLECULE
ASD01881484
  49   53    0    0    0
SMALL
NO_CHARGES


@<TRIPOS>ATOM
   1 C1            -0.0161     1.3337     0.0094 C.2     
   2 N2             0.0021    -0.0041     0.0020 N.am    
   3 C3             1.2613    -0.4841    -0.0126 C.2     
   4 C4             2.1640     0.7337    -0.0147 C.3     
   5 N5             1.2200     1.8645     0.0004 N.am    
   6 O6            -1.0354     1.9955     0.0180 O.2     
   7 O7             1.6013    -1.6477    -0.0215 O.2     
   8 C8            -1.1986    -0.8435     0.0097 C.3     
   9 C9             1.5609     3.2893     0.0041 C.3     
  10 C10            1.6916     3.7708     1.4261 C.ar    
  11 C11            2.9179     3.7119     2.0635 C.ar    
  12 C12            3.0436     4.1515     3.3656 C.ar    
  13 C13            1.9317     4.6556     4.0386 C.ar    
  14 C14            0.6985     4.7125     3.3911 C.ar    
  15 C15            0.5860     4.2753     2.0870 C.ar    
  16 C16            2.1296     6.5463     9.4228 C.2     
  17 N17            0.8532     6.9185     9.6195 N.am    
  18 C18            0.0906     6.6569     8.3935 C.3     
  19 C19            1.0684     6.0704     7.4058 C.ar    
  20 C20            0.9454     5.6335     6.1100 C.ar    
  21 C21            2.0602     5.1290     5.4378 C.ar    
  22 C22            3.2953     5.0703     6.0844 C.ar    
  23 C23            3.4183     5.5084     7.3833 C.ar    
  24 C24            2.3036     6.0140     8.0586 C.ar    
  25 O25            3.0156     6.6401    10.2499 O.2     
  26 C26            0.3121     7.4904    10.8550 C.3     
  27 C27            0.4099     6.6453    12.1266 C.3     
  28 C28            1.3079     7.8717    11.9522 C.3     
  29 H29            2.7924     0.7467     0.8759 H       
  30 H30            2.7753     0.7564    -0.9169 H       
  31 H31           -1.5068    -1.0461    -1.0159 H       
  32 H32           -0.9813    -1.7838     0.5163 H       
  33 H33           -2.0010    -0.3250     0.5345 H       
  34 H34            2.5060     3.4381    -0.5182 H       
  35 H35            0.7749     3.8522    -0.4994 H       
  36 H36            3.7786     3.3209     1.5412 H       
  37 H37            4.0014     4.1047     3.8624 H       
  38 H38           -0.1663     5.1021     3.9076 H       
  39 H39           -0.3679     4.3233     1.5828 H       
  40 H40           -0.7104     5.9457     8.5952 H       
  41 H41           -0.3229     7.5872     8.0040 H       
  42 H42           -0.0116     5.6802     5.6117 H       
  43 H43            4.1573     4.6796     5.5640 H       
  44 H44            4.3757     5.4612     7.8808 H       
  45 H45           -0.5703     8.1189    10.7350 H       
  46 H46           -0.4079     6.7182    12.8435 H       
  47 H47            0.8769     5.6638    12.0440 H       
  48 H48            2.3656     7.6971    11.7548 H       
  49 H49            1.0808     8.7515    12.5543 H       
@<TRIPOS>BOND
   1    1    2 am
   2    1    5 am
   3    1    6 2
   4    2    3 am
   5    2    8 1
   6    3    4 1
   7    3    7 2
   8    4    5 1
   9    4   29 1
  10    4   30 1
  11    5    9 1
  12    8   31 1
  13    8   32 1
  14    8   33 1
  15    9   10 1
  16    9   34 1
  17    9   35 1
  18   10   11 ar
  19   10   15 ar
  20   11   12 ar
  21   11   36 1
  22   12   13 ar
  23   12   37 1
  24   13   14 ar
  25   13   21 1
  26   14   15 ar
  27   14   38 1
  28   15   39 1
  29   16   17 am
  30   16   24 1
  31   16   25 2
  32   17   18 1
  33   17   26 1
  34   18   19 1
  35   18   40 1
  36   18   41 1
  37   19   20 ar
  38   19   24 ar
  39   20   21 ar
  40   20   42 1
  41   21   22 ar
  42   22   23 ar
  43   22   43 1
  44   23   24 ar
  45   23   44 1
  46   26   27 1
  47   26   28 1
  48   26   45 1
  49   27   28 1
  50   27   46 1
  51   27   47 1
  52   28   48 1
  53   28   49 1

#	End of record

