#	Name: ASD08070242
#	Creating user name:	WinNT
#	Creation time:	15. 06. 2019 21:14

#	Modifying user name:	WinNT
#	Modification time:	15. 06. 2019 21:14

#	Program:	/corina/corina34_cracker 3.40 0067  02.08.2006

@<TRIPOS>MOLECULE
ASD08070242
  37   39    0    0    0
SMALL
NO_CHARGES


@<TRIPOS>ATOM
   1 N1            -0.0199     1.3453    -0.0280 N.am    
   2 C2             0.0007    -0.0023    -0.0200 C.2     
   3 O3             1.0626    -0.5942    -0.0393 O.2     
   4 N4            -1.1558    -0.6938     0.0094 N.am    
   5 C5            -1.1402    -2.0886    -0.1039 C.ar    
   6 C6            -2.0818    -2.8523     0.5736 C.ar    
   7 C7            -2.0640    -4.2284     0.4594 C.ar    
   8 C8             1.1441     2.2365    -0.0588 C.3     
   9 C9            -0.1870    -2.7114    -0.8984 C.ar    
  10 C10           -0.1745    -4.0883    -1.0085 C.ar    
  11 C11           -1.1097    -4.8461    -0.3283 C.ar    
  12 C12           -3.1215    -2.1801     1.4328 C.3     
  13 N13           -1.0935    -6.3214    -0.4485 N.pl3   
  14 C14            0.6350     3.6558    -0.0566 C.ar    
  15 C15           -0.7452     3.6349    -0.0266 C.ar    
  16 C16           -1.2108     2.2008    -0.0140 C.3     
  17 C17            1.3073     4.8659    -0.0787 C.ar    
  18 C18            0.5993     6.0521    -0.0704 C.ar    
  19 C19           -0.7828     6.0311    -0.0403 C.ar    
  20 C20           -1.4541     4.8240    -0.0191 C.ar    
  21 O21           -0.2569    -6.8664    -1.1461 O.2     
  22 O22           -1.9167    -6.9903     0.1502 O.2     
  23 H23           -1.9990    -0.2247     0.1090 H       
  24 H24           -2.7959    -4.8229     0.9860 H       
  25 H25            1.7640     2.0651     0.8212 H       
  26 H26            1.7254     2.0539    -0.9626 H       
  27 H27            0.5438    -2.1199    -1.4300 H       
  28 H28            0.5667    -4.5733    -1.6263 H       
  29 H29           -4.0026    -1.9587     0.8307 H       
  30 H30           -3.3988    -2.8426     2.2527 H       
  31 H31           -2.7149    -1.2529     1.8366 H       
  32 H32           -1.8251     2.0041    -0.8926 H       
  33 H33           -1.7863     2.0072     0.8912 H       
  34 H34            2.3869     4.8825    -0.1022 H       
  35 H35            1.1251     6.9953    -0.0869 H       
  36 H36           -1.3372     6.9579    -0.0338 H       
  37 H37           -2.5338     4.8079     0.0044 H       
@<TRIPOS>BOND
   1    1    2 am
   2    1    8 1
   3    1   16 1
   4    2    3 2
   5    2    4 am
   6    4    5 1
   7    4   23 1
   8    5    6 ar
   9    5    9 ar
  10    6    7 ar
  11    6   12 1
  12    7   11 ar
  13    7   24 1
  14    8   14 1
  15    8   25 1
  16    8   26 1
  17    9   10 ar
  18    9   27 1
  19   10   11 ar
  20   10   28 1
  21   11   13 1
  22   12   29 1
  23   12   30 1
  24   12   31 1
  25   13   21 2
  26   13   22 2
  27   14   15 ar
  28   14   17 ar
  29   15   16 1
  30   15   20 ar
  31   16   32 1
  32   16   33 1
  33   17   18 ar
  34   17   34 1
  35   18   19 ar
  36   18   35 1
  37   19   20 ar
  38   19   36 1
  39   20   37 1

#	End of record

