#	Name: ASD01913947
#	Creating user name:	WinNT
#	Creation time:	15. 06. 2019 20:02

#	Modifying user name:	WinNT
#	Modification time:	15. 06. 2019 20:02

#	Program:	/corina/corina34_cracker 3.40 0067  02.08.2006

@<TRIPOS>MOLECULE
ASD01913947
  37   39    0    0    0
SMALL
NO_CHARGES


@<TRIPOS>ATOM
   1 C1            -0.0184     1.4278    -0.0045 C.ar    
   2 C2             0.0013    -0.0040    -0.0081 C.1     
   3 C3             0.0175    -1.1779    -0.0111 C.1     
   4 C4             0.0372    -2.6098    -0.0146 C.ar    
   5 C5            -1.1576    -3.3387     0.0816 C.ar    
   6 C6             0.1561    -5.3344    -0.0290 C.ar    
   7 N7             1.2664    -4.6185    -0.1242 N.ar    
   8 C8             1.2458    -3.3019    -0.1198 C.ar    
   9 C9            -1.0870    -4.7173     0.0735 C.ar    
  10 C10           -1.2317     2.1130     0.1010 C.ar    
  11 C11           -0.0564     4.1973     0.0034 C.ar    
  12 N12            0.2332    -6.7251    -0.0385 N.am    
  13 C13            1.1761     2.1467    -0.1008 C.ar    
  14 C14           -1.2428     3.4922     0.1043 C.ar    
  15 C15            1.1493     3.5256    -0.0962 C.ar    
  16 C16            0.1494    -7.2852    -1.2289 C.2     
  17 C17            0.0825    -8.7567    -1.5167 C.3     
  18 S18            0.7428    -9.6763    -0.0946 S.o2    
  19 C19           -0.0762    -8.7971     1.2720 C.3     
  20 C20            0.3992    -7.3432     1.2588 C.3     
  21 O21            0.1234    -6.5389    -2.1844 O.2     
  22 O22            0.2519   -11.0089    -0.1422 O.2     
  23 O23            2.1432    -9.4495    -0.0120 O.2     
  24 H24           -2.1091    -2.8337     0.1605 H       
  25 H25            2.1720    -2.7521    -0.1987 H       
  26 H26           -1.9867    -5.3104     0.1462 H       
  27 H27           -2.1584     1.5640     0.1795 H       
  28 H28           -0.0713     5.2772     0.0061 H       
  29 H29            2.1179     1.6238    -0.1781 H       
  30 H30           -2.1801     4.0231     0.1813 H       
  31 H31            2.0717     4.0825    -0.1708 H       
  32 H32           -0.9540    -9.0472    -1.6885 H       
  33 H33            0.6759    -8.9815    -2.4029 H       
  34 H34           -1.1572    -8.8342     1.1371 H       
  35 H35            0.1922    -9.2617     2.2208 H       
  36 H36            1.4524    -7.3133     1.5381 H       
  37 H37           -0.1750    -6.7770     1.9922 H       
@<TRIPOS>BOND
   1    1    2 1
   2    1   13 ar
   3    1   10 ar
   4    2    3 3
   5    3    4 1
   6    4    5 ar
   7    4    8 ar
   8    5    9 ar
   9    5   24 1
  10    6    7 ar
  11    6   12 1
  12    6    9 ar
  13    7    8 ar
  14    8   25 1
  15    9   26 1
  16   10   14 ar
  17   10   27 1
  18   11   14 ar
  19   11   15 ar
  20   11   28 1
  21   12   16 am
  22   12   20 1
  23   13   15 ar
  24   13   29 1
  25   14   30 1
  26   15   31 1
  27   16   17 1
  28   16   21 2
  29   17   18 1
  30   17   32 1
  31   17   33 1
  32   18   19 1
  33   18   22 2
  34   18   23 2
  35   19   20 1
  36   19   34 1
  37   19   35 1
  38   20   36 1
  39   20   37 1

#	End of record

