#	Name: ASD01814091
#	Creating user name:	WinNT
#	Creation time:	15. 06. 2019 19:31

#	Modifying user name:	WinNT
#	Modification time:	15. 06. 2019 19:31

#	Program:	/corina/corina34_cracker 3.40 0067  02.08.2006

@<TRIPOS>MOLECULE
ASD01814091
  41   44    0    0    0
SMALL
NO_CHARGES


@<TRIPOS>ATOM
   1 C1             1.1581     2.2493    -0.5152 C.ar    
   2 C2             0.7817     0.9150    -0.4999 C.ar    
   3 C3             1.7236    -0.0820    -0.3473 C.ar    
   4 C4             3.0705     0.2475    -0.2069 C.ar    
   5 C5             3.4507     1.6003    -0.2232 C.ar    
   6 C6             2.4864     2.5995    -0.3779 C.ar    
   7 N7             4.0208    -0.7400    -0.0528 N.pl3   
   8 C8             5.3259    -0.4751     0.0866 C.2     
   9 C9             5.8186     0.8142     0.0867 C.2     
  10 C10            4.8779     1.9352    -0.0738 C.2     
  11 O11            5.2631     3.0913    -0.0809 O.2     
  12 C12            7.2584     1.0637     0.2434 C.2     
  13 O13            7.7275     2.3275     0.2418 O.3     
  14 O14            8.0263     0.1304     0.3744 O.2     
  15 C15            3.5837    -2.1382    -0.0406 C.3     
  16 C16            3.4403    -2.6321    -1.4571 C.ar    
  17 C17            4.5224    -2.5815    -2.3198 C.ar    
  18 C18            4.3922    -3.0342    -3.6208 C.ar    
  19 C19            3.1762    -3.5390    -4.0593 C.ar    
  20 C20            2.0937    -3.5883    -3.1910 C.ar    
  21 C21            2.2300    -3.1401    -1.8918 C.ar    
  22 N22            3.0407    -3.9980    -5.3773 N.pl3   
  23 F23            1.3400    -1.3773    -0.3336 F       
  24 C24            1.9061    -4.5155    -5.9327 C.2     
  25 C25            2.2277    -4.8263    -7.2164 C.2     
  26 N26            3.5158    -4.4898    -7.3764 N.2     
  27 N27            3.9630    -3.9996    -6.2751 N.2     
  28 F28            5.7054    -2.0897    -1.8910 F       
  29 F29            2.8517     3.9000    -0.3940 F       
  30 S30            1.1629    -5.5322    -8.4299 S.3     
  31 H31            0.4096     3.0178    -0.6396 H       
  32 H32           -0.2604     0.6530    -0.6081 H       
  33 H33            6.0159    -1.2977     0.2033 H       
  34 H34            8.6819     2.4416     0.3480 H       
  35 H35            4.3224    -2.7452     0.4828 H       
  36 H36            2.6235    -2.2143     0.4697 H       
  37 H37            5.2356    -2.9943    -4.2942 H       
  38 H38            1.1464    -3.9805    -3.5305 H       
  39 H39            1.3879    -3.1790    -1.2167 H       
  40 H40            0.9490    -4.6506    -5.4509 H       
  41 H41            0.6186    -4.4528    -9.0195 H       
@<TRIPOS>BOND
   1    1    2 ar
   2    1    6 ar
   3    1   31 1
   4    2    3 ar
   5    2   32 1
   6    3    4 ar
   7    3   23 1
   8    4    5 ar
   9    4    7 1
  10    5    6 ar
  11    5   10 1
  12    6   29 1
  13    7    8 1
  14    7   15 1
  15    8    9 2
  16    8   33 1
  17    9   10 1
  18    9   12 1
  19   10   11 2
  20   12   13 1
  21   12   14 2
  22   13   34 1
  23   15   16 1
  24   15   35 1
  25   15   36 1
  26   16   17 ar
  27   16   21 ar
  28   17   18 ar
  29   17   28 1
  30   18   19 ar
  31   18   37 1
  32   19   20 ar
  33   19   22 1
  34   20   21 ar
  35   20   38 1
  36   21   39 1
  37   22   24 1
  38   22   27 1
  39   24   25 2
  40   24   40 1
  41   25   26 1
  42   25   30 1
  43   26   27 2
  44   30   41 1

#	End of record

