#	Name: ASD01230222
#	Creating user name:	WinNT
#	Creation time:	15. 06. 2019 19:12

#	Modifying user name:	WinNT
#	Modification time:	15. 06. 2019 19:12

#	Program:	/corina/corina34_cracker 3.40 0067  02.08.2006

@<TRIPOS>MOLECULE
ASD01230222
  24   25    0    0    0
SMALL
NO_CHARGES


@<TRIPOS>ATOM
   1 N1            -0.0179     1.4702     0.0101 N.3     
   2 C2             0.2330     0.0246    -0.1356 C.3     
   3 C3             1.7596    -0.1850    -0.0537 C.3     
   4 C4             2.2461     1.0802     0.7009 C.3     
   5 C5             1.2811     2.1613     0.1535 C.3     
   6 C6            -0.7314     1.9672    -1.0833 C.ar    
   7 C7            -1.7116     1.1895    -1.6864 C.ar    
   8 C8            -2.4152     1.6836    -2.7672 C.ar    
   9 C9            -2.1444     2.9516    -3.2494 C.ar    
  10 C10           -1.1686     3.7284    -2.6512 C.ar    
  11 C11           -0.4661     3.2424    -1.5660 C.ar    
  12 I12           -3.2139     3.6966    -4.8896 I       
  13 H13           -0.2599    -0.5203     0.6695 H       
  14 H14           -0.1375    -0.3206    -1.1009 H       
  15 H15            1.9951    -1.0860     0.5128 H       
  16 H16            2.1965    -0.2306    -1.0513 H       
  17 H17            2.1291     0.9616     1.7780 H       
  18 H18            3.2797     1.3139     0.4454 H       
  19 H19            1.6271     2.5237    -0.8145 H       
  20 H20            1.1959     2.9868     0.8603 H       
  21 H21           -1.9230     0.1992    -1.3108 H       
  22 H22           -3.1774     1.0793    -3.2365 H       
  23 H23           -0.9592     4.7178    -3.0302 H       
  24 H24            0.2923     3.8512    -1.0963 H       
@<TRIPOS>BOND
   1    1    2 1
   2    1    5 1
   3    1    6 1
   4    2    3 1
   5    2   13 1
   6    2   14 1
   7    3    4 1
   8    3   15 1
   9    3   16 1
  10    4    5 1
  11    4   17 1
  12    4   18 1
  13    5   19 1
  14    5   20 1
  15    6    7 ar
  16    6   11 ar
  17    7    8 ar
  18    7   21 1
  19    8    9 ar
  20    8   22 1
  21    9   10 ar
  22    9   12 1
  23   10   11 ar
  24   10   23 1
  25   11   24 1

#	End of record

