#	Name: ASD00311452
#	Creating user name:	WinNT
#	Creation time:	15. 06. 2019 18:34

#	Modifying user name:	WinNT
#	Modification time:	15. 06. 2019 18:34

#	Program:	/corina/corina34_cracker 3.40 0067  02.08.2006

@<TRIPOS>MOLECULE
ASD00311452
  49   53    0    0    0
SMALL
NO_CHARGES


@<TRIPOS>ATOM
   1 C1            -0.0327     1.3750    -0.3675 C.2     
   2 C2            -0.0176    -0.0067    -0.3828 C.2     
   3 C3             1.2190    -0.6806    -0.6033 C.2     
   4 C4             2.3764     0.0622    -0.7972 C.2     
   5 C5             2.3068     1.4701    -0.7723 C.2     
   6 N6             1.1333     2.0864    -0.5624 N.am    
   7 C7            -1.3446    -0.5766    -0.1579 C.2     
   8 C8            -2.3076     0.3258     0.0173 C.2     
   9 S9            -1.6685     1.9552    -0.0723 S.3     
  10 O10            3.3183     2.1313    -0.9412 O.2     
  11 C11           -2.0702    -4.7667    -0.0713 C.ar    
  12 C12           -2.5466    -3.9553     0.9582 C.ar    
  13 C13           -2.3114    -2.5986     0.9308 C.ar    
  14 C14           -1.5969    -2.0357    -0.1275 C.ar    
  15 C15           -1.1204    -2.8480    -1.1574 C.ar    
  16 C16           -1.3556    -4.2046    -1.1289 C.ar    
  17 C17           -2.3183    -6.2284    -0.0382 C.ar    
  18 C18           -3.6238    -6.7157     0.0039 C.ar    
  19 C19           -3.8487    -8.0767     0.0345 C.ar    
  20 C20           -2.7816    -8.9573     0.0235 C.ar    
  21 C21           -1.4843    -8.4796    -0.0182 C.ar    
  22 C22           -1.2475    -7.1203    -0.0550 C.ar    
  23 C23           -4.7871    -5.7578     0.0164 C.3     
  24 F24           -5.9833    -6.4754    -0.0909 F       
  25 F25           -4.7830    -5.0348     1.2141 F       
  26 F26           -4.6752    -4.8740    -1.0623 F       
  27 C27            3.6716    -0.6183    -1.0275 C.ar    
  28 C28            4.3289    -0.4778    -2.2496 C.ar    
  29 C29            5.5353    -1.1143    -2.4581 C.ar    
  30 C30            6.0927    -1.8910    -1.4581 C.ar    
  31 C31            5.4456    -2.0342    -0.2438 C.ar    
  32 C32            4.2418    -1.3977    -0.0210 C.ar    
  33 O33            1.2649    -2.0331    -0.6232 O.3     
  34 H34            1.1039     3.0558    -0.5488 H       
  35 H35           -3.3455     0.0853     0.1945 H       
  36 H36           -3.1002    -4.3909     1.7769 H       
  37 H37           -2.6807    -1.9703     1.7279 H       
  38 H38           -0.5671    -2.4128    -1.9764 H       
  39 H39           -0.9869    -4.8333    -1.9260 H       
  40 H40           -4.8596    -8.4554     0.0675 H       
  41 H41           -2.9623   -10.0218     0.0479 H       
  42 H42           -0.6552    -9.1716    -0.0267 H       
  43 H43           -0.2342    -6.7484    -0.0921 H       
  44 H44            3.8943     0.1277    -3.0312 H       
  45 H45            6.0452    -1.0063    -3.4040 H       
  46 H46            7.0368    -2.3878    -1.6263 H       
  47 H47            5.8856    -2.6422     0.5329 H       
  48 H48            3.7399    -1.5063     0.9291 H       
  49 H49            2.1482    -2.3943    -0.7796 H       
@<TRIPOS>BOND
   1    1    2 2
   2    1    6 1
   3    1    9 1
   4    2    3 1
   5    2    7 1
   6    3    4 2
   7    3   33 1
   8    4    5 1
   9    4   27 1
  10    5    6 am
  11    5   10 2
  12    6   34 1
  13    7    8 2
  14    7   14 1
  15    8    9 1
  16    8   35 1
  17   11   12 ar
  18   11   16 ar
  19   11   17 1
  20   12   13 ar
  21   12   36 1
  22   13   14 ar
  23   13   37 1
  24   14   15 ar
  25   15   16 ar
  26   15   38 1
  27   16   39 1
  28   17   18 ar
  29   17   22 ar
  30   18   19 ar
  31   18   23 1
  32   19   20 ar
  33   19   40 1
  34   20   21 ar
  35   20   41 1
  36   21   22 ar
  37   21   42 1
  38   22   43 1
  39   23   24 1
  40   23   25 1
  41   23   26 1
  42   27   28 ar
  43   27   32 ar
  44   28   29 ar
  45   28   44 1
  46   29   30 ar
  47   29   45 1
  48   30   31 ar
  49   30   46 1
  50   31   32 ar
  51   31   47 1
  52   32   48 1
  53   33   49 1

#	End of record

