#	Name: ASD04910007
#	Creating user name:	WinNT
#	Creation time:	15. 06. 2019 20:55

#	Modifying user name:	WinNT
#	Modification time:	15. 06. 2019 20:55

#	Program:	/corina/corina34_cracker 3.40 0067  02.08.2006

@<TRIPOS>MOLECULE
ASD04910007
  62   65    0    0    0
SMALL
NO_CHARGES


@<TRIPOS>ATOM
   1 C1             1.9690     1.6208     1.3747 C.2     
   2 C2             1.7149     0.1532     1.1456 C.3     
   3 C3             3.0500    -0.5909     1.0766 C.3     
   4 O4             3.1018     2.0296     1.4728 O.2     
   5 O5             0.9372     2.4746     1.4644 O.3     
   6 C6             3.8391    -2.8742     0.7582 C.2     
   7 C7             3.5898    -4.3140     0.5334 C.ar    
   8 C8             4.6607    -5.2036     0.4340 C.ar    
   9 C9             4.4211    -6.5460     0.2246 C.ar    
  10 C10            3.1227    -7.0109     0.1128 C.ar    
  11 C11            2.0567    -6.1344     0.2104 C.ar    
  12 C12            2.2823    -4.7904     0.4254 C.ar    
  13 O13            4.9787    -2.4628     0.8569 O.2     
  14 N14            2.8029    -2.0177     0.8538 N.am    
  15 C15            2.8686    -8.4785    -0.1169 C.3     
  16 O16            1.6765    -8.8684     0.5679 O.3     
  17 C17            1.7934    -9.1677     1.8888 C.ar    
  18 C18            0.6787    -9.5709     2.6098 C.ar    
  19 C19            0.7970    -9.8755     3.9512 C.ar    
  20 C20            2.0316    -9.7783     4.5787 C.ar    
  21 C21            3.1468    -9.3748     3.8568 C.ar    
  22 C22            3.0285    -9.0755     2.5141 C.ar    
  23 N23            2.1523   -10.0873     5.9418 N.pl3   
  24 N24            1.1164   -10.5049     6.7873 N.2     
  25 C25            1.6153   -10.6957     7.9823 C.2     
  26 C26            2.9832   -10.4063     7.9370 C.2     
  27 C27            3.2900   -10.0403     6.6706 C.2     
  28 C28            3.9465   -10.4931     9.0928 C.3     
  29 F29            3.2630   -10.9132    10.2389 F       
  30 F30            4.9571   -11.4117     8.7895 F       
  31 F31            4.5134    -9.2350     9.3227 F       
  32 C32            2.7043    -8.7392    -1.6155 C.3     
  33 C33            2.5828   -10.2507    -1.8773 C.3     
  34 C34            1.2055   -10.4746    -2.5351 C.3     
  35 C35            0.8609    -9.1049    -3.1708 C.3     
  36 C36            1.3966    -8.0975    -2.1233 C.3     
  37 H37            1.1190    -0.2450     1.9669 H       
  38 H38            1.1757     0.0199     0.2076 H       
  39 H39            3.6458    -0.1928     0.2552 H       
  40 H40            3.5891    -0.4577     2.0145 H       
  41 H41            1.1499     3.4063     1.6118 H       
  42 H42            5.6746    -4.8419     0.5204 H       
  43 H43            5.2488    -7.2355     0.1475 H       
  44 H44            1.0457    -6.5037     0.1222 H       
  45 H45            1.4492    -4.1079     0.5059 H       
  46 H46            1.8935    -2.3459     0.7750 H       
  47 H47            3.7111    -9.0568     0.2623 H       
  48 H48           -0.2818    -9.6461     2.1217 H       
  49 H49           -0.0709   -10.1889     4.5125 H       
  50 H50            4.1075    -9.2991     4.3444 H       
  51 H51            3.8968    -8.7660     1.9514 H       
  52 H52            1.0655   -11.0204     8.8534 H       
  53 H53            4.2675    -9.7585     6.3081 H       
  54 H54            3.5565    -8.3332    -2.1605 H       
  55 H55            3.3755   -10.5780    -2.5501 H       
  56 H56            2.6409   -10.7984    -0.9367 H       
  57 H57            1.2702   -11.2459    -3.3026 H       
  58 H58            0.4632   -10.7441    -1.7838 H       
  59 H59            1.3750    -8.9811    -4.1240 H       
  60 H60           -0.2166    -8.9967    -3.2949 H       
  61 H61            0.6852    -7.9830    -1.3055 H       
  62 H62            1.6008    -7.1340    -2.5903 H       
@<TRIPOS>BOND
   1    1    2 1
   2    1    4 2
   3    1    5 1
   4    2    3 1
   5    2   37 1
   6    2   38 1
   7    3   14 1
   8    3   39 1
   9    3   40 1
  10    5   41 1
  11    6    7 1
  12    6   13 2
  13    6   14 am
  14    7    8 ar
  15    7   12 ar
  16    8    9 ar
  17    8   42 1
  18    9   10 ar
  19    9   43 1
  20   10   11 ar
  21   10   15 1
  22   11   12 ar
  23   11   44 1
  24   12   45 1
  25   14   46 1
  26   15   16 1
  27   15   32 1
  28   15   47 1
  29   16   17 1
  30   17   18 ar
  31   17   22 ar
  32   18   19 ar
  33   18   48 1
  34   19   20 ar
  35   19   49 1
  36   20   21 ar
  37   20   23 1
  38   21   22 ar
  39   21   50 1
  40   22   51 1
  41   23   24 1
  42   23   27 1
  43   24   25 2
  44   25   26 1
  45   25   52 1
  46   26   27 2
  47   26   28 1
  48   27   53 1
  49   28   29 1
  50   28   30 1
  51   28   31 1
  52   32   33 1
  53   32   36 1
  54   32   54 1
  55   33   34 1
  56   33   55 1
  57   33   56 1
  58   34   35 1
  59   34   57 1
  60   34   58 1
  61   35   36 1
  62   35   59 1
  63   35   60 1
  64   36   61 1
  65   36   62 1

#	End of record

