#	Name: ASD01190003
#	Creating user name:	WinNT
#	Creation time:	15. 06. 2019 19:07

#	Modifying user name:	WinNT
#	Modification time:	15. 06. 2019 19:07

#	Program:	/corina/corina34_cracker 3.40 0067  02.08.2006

@<TRIPOS>MOLECULE
ASD01190003
  75   78    0    0    0
SMALL
NO_CHARGES


@<TRIPOS>ATOM
   1 C1            -0.0187     1.5259     0.0104 C.3     
   2 C2             0.0021    -0.0041     0.0020 C.3     
   3 C3             0.7177    -0.4966    -1.2575 C.3     
   4 C4             2.1530     0.0325    -1.2679 C.3     
   5 C5             2.1338     1.5626    -1.2590 C.3     
   6 C6             1.4165     2.0556    -0.0004 C.3     
   7 C7             2.8708    -0.4628    -2.5248 C.3     
   8 C8             4.3062     0.0672    -2.5361 C.3     
   9 C9             4.2838     1.5964    -2.5339 C.3     
  10 C10            3.5697     2.0886    -1.2655 C.3     
  11 C11            5.6978     2.1450    -2.4948 C.3     
  12 C12            5.5872     3.6913    -2.5827 C.3     
  13 C13            4.9944     4.1791    -1.2754 C.3     
  14 C14            3.5683     3.6111    -1.1790 C.3     
  15 C15            6.5727     1.8271    -3.7121 C.3     
  16 C16            7.6464     2.9488    -3.6707 C.3     
  17 C17            7.0162     4.1279    -2.8882 C.3     
  18 C18            7.0115     5.3929    -3.7488 C.3     
  19 C19            6.3533     6.5354    -2.9726 C.3     
  20 C20            8.4506     5.7770    -4.0989 C.3     
  21 C21            8.4413     6.9670    -5.0604 C.3     
  22 C22            9.8804     7.3510    -5.4105 C.3     
  23 C23            9.8711     8.5411    -6.3721 C.3     
  24 C24            9.2866     9.7647    -5.6636 C.3     
  25 C25           11.3020     8.8461    -6.8198 C.3     
  26 C26            1.3964     2.0712    -2.4993 C.3     
  27 C27            4.6689     4.0790    -3.7435 C.3     
  28 H28           -0.5459     1.8869    -0.8726 H       
  29 H29           -0.5289     1.8774     0.9072 H       
  30 H30            0.5299    -0.3652     0.8847 H       
  31 H31           -1.0205    -0.3815     0.0101 H       
  32 H32            0.7321    -1.5865    -1.2645 H       
  33 H33            0.1905    -0.1345    -2.1401 H       
  34 H34            2.6795    -0.3290    -0.3846 H       
  35 H35            1.4015     3.1454     0.0057 H       
  36 H36            1.9435     1.6948     0.8829 H       
  37 H37            2.8861    -1.5527    -2.5286 H       
  38 H38            2.3441    -0.1040    -3.4091 H       
  39 H39            4.8325    -0.2898    -1.6509 H       
  40 H40            4.8176    -0.2875    -3.4309 H       
  41 H41            3.7571     1.9581    -3.4170 H       
  42 H42            4.0921     1.6972    -0.3926 H       
  43 H43            6.1932     1.8502    -1.5697 H       
  44 H44            5.5941     3.8194    -0.4393 H       
  45 H45            4.9608     5.2685    -1.2672 H       
  46 H46            2.9679     4.0141    -1.9945 H       
  47 H47            3.1272     3.9139    -0.2293 H       
  48 H48            7.0359     0.8459    -3.6086 H       
  49 H49            5.9901     1.8848    -4.6315 H       
  50 H50            8.5392     2.5932    -3.1565 H       
  51 H51            7.8977     3.2637    -4.6835 H       
  52 H52            7.5640     4.3023    -1.9621 H       
  53 H53            6.4519     5.2067    -4.6654 H       
  54 H54            6.9129     6.7216    -2.0559 H       
  55 H55            6.3499     7.4366    -3.5857 H       
  56 H56            5.3281     6.2618    -2.7232 H       
  57 H57            8.9856     6.0491    -3.1891 H       
  58 H58            8.9474     4.9305    -4.5731 H       
  59 H59            7.9063     6.6948    -5.9703 H       
  60 H60            7.9445     7.8134    -4.5862 H       
  61 H61           10.4154     7.6232    -4.5007 H       
  62 H62           10.3772     6.5046    -5.8847 H       
  63 H63            9.2615     8.2998    -7.2429 H       
  64 H64            9.2800    10.6125    -6.3486 H       
  65 H65            8.2672     9.5474    -5.3446 H       
  66 H66            9.8962    10.0059    -4.7927 H       
  67 H67           11.7184     7.9744    -7.3246 H       
  68 H68           11.2954     9.6939    -7.5049 H       
  69 H69           11.9115     9.0874    -5.9490 H       
  70 H70            0.3733     1.6951    -2.4934 H       
  71 H71            1.3829     3.1611    -2.4925 H       
  72 H72            1.9075     1.7197    -3.3955 H       
  73 H73            3.6781     3.6552    -3.5801 H       
  74 H74            4.5947     5.1650    -3.8009 H       
  75 H75            5.0799     3.6931    -4.6764 H       
@<TRIPOS>BOND
   1    1    2 1
   2    1    6 1
   3    1   28 1
   4    1   29 1
   5    2    3 1
   6    2   30 1
   7    2   31 1
   8    3    4 1
   9    3   32 1
  10    3   33 1
  11    4    5 1
  12    4    7 1
  13    4   34 1
  14    5    6 1
  15    5   26 1
  16    5   10 1
  17    6   35 1
  18    6   36 1
  19    7    8 1
  20    7   37 1
  21    7   38 1
  22    8    9 1
  23    8   39 1
  24    8   40 1
  25    9   10 1
  26    9   11 1
  27    9   41 1
  28   10   14 1
  29   10   42 1
  30   11   12 1
  31   11   15 1
  32   11   43 1
  33   12   13 1
  34   12   27 1
  35   12   17 1
  36   13   14 1
  37   13   44 1
  38   13   45 1
  39   14   46 1
  40   14   47 1
  41   15   16 1
  42   15   48 1
  43   15   49 1
  44   16   17 1
  45   16   50 1
  46   16   51 1
  47   17   18 1
  48   17   52 1
  49   18   19 1
  50   18   20 1
  51   18   53 1
  52   19   54 1
  53   19   55 1
  54   19   56 1
  55   20   21 1
  56   20   57 1
  57   20   58 1
  58   21   22 1
  59   21   59 1
  60   21   60 1
  61   22   23 1
  62   22   61 1
  63   22   62 1
  64   23   24 1
  65   23   25 1
  66   23   63 1
  67   24   64 1
  68   24   65 1
  69   24   66 1
  70   25   67 1
  71   25   68 1
  72   25   69 1
  73   26   70 1
  74   26   71 1
  75   26   72 1
  76   27   73 1
  77   27   74 1
  78   27   75 1

#	End of record

