#	Name: ASD01813400
#	Creating user name:	WinNT
#	Creation time:	15. 06. 2019 19:30

#	Modifying user name:	WinNT
#	Modification time:	15. 06. 2019 19:30

#	Program:	/corina/corina34_cracker 3.40 0067  02.08.2006

@<TRIPOS>MOLECULE
ASD01813400
  53   56    0    0    0
SMALL
NO_CHARGES


@<TRIPOS>ATOM
   1 C1            -0.0173     1.4248     0.0099 C.3     
   2 O2             0.0021    -0.0041     0.0020 O.3     
   3 C3             0.6250    -0.6176     1.0401 C.ar    
   4 C4             1.2058     0.1353     2.0572 C.ar    
   5 N5             1.8104    -0.4498     3.0662 N.ar    
   6 C6             1.8929    -1.7720     3.1584 C.ar    
   7 C7             1.3343    -2.5902     2.1768 C.ar    
   8 C8             0.6856    -2.0071     1.1032 C.ar    
   9 C9             0.0637    -2.8559     0.0244 C.3     
  10 C10            1.0388    -3.0160    -1.1134 C.ar    
  11 C11            1.0443    -2.1003    -2.1502 C.ar    
  12 C12            1.9350    -2.2420    -3.1948 C.ar    
  13 C13            2.8302    -3.3101    -3.2037 C.ar    
  14 C14            2.8203    -4.2296    -2.1564 C.ar    
  15 C15            1.9289    -4.0748    -1.1142 C.ar    
  16 C16            3.7898    -3.4679    -4.3240 C.2     
  17 C17            4.6764    -4.4815    -4.3932 C.2     
  18 S18            5.6096    -4.2833    -5.8743 S.3     
  19 C19            4.7278    -2.8700    -6.2563 C.2     
  20 N20            3.8474    -2.6284    -5.3477 N.2     
  21 C21            2.5848    -2.3834     4.3142 C.2     
  22 O22            2.6640    -3.5929     4.4048 O.2     
  23 N23            3.1275    -1.5993     5.2666 N.am    
  24 C24            3.8128    -2.2048     6.4112 C.3     
  25 H25            3.3114    -3.1324     6.6873 H       
  26 C26            5.2689    -2.5005     6.0388 C.3     
  27 C27            5.9972    -3.0596     7.2638 C.3     
  28 O28            5.9091    -2.1213     8.3380 O.3     
  29 C29            4.5729    -1.8420     8.7607 C.3     
  30 C30            3.7853    -1.2350     7.5965 C.3     
  31 H31            4.2413    -0.2891     7.3039 H       
  32 O32            2.4326    -1.0102     7.9984 O.3     
  33 H33            1.0053     1.8021     0.0021 H       
  34 H34           -0.5445     1.7859    -0.8732 H       
  35 H35           -0.5275     1.7763     0.9067 H       
  36 H36            1.1590     1.2135     2.0161 H       
  37 H37            1.4037    -3.6651     2.2559 H       
  38 H38           -0.1842    -3.8363     0.4311 H       
  39 H39           -0.8434    -2.3736    -0.3397 H       
  40 H40            0.3498    -1.2732    -2.1425 H       
  41 H41            1.9382    -1.5267    -4.0040 H       
  42 H42            3.5118    -5.0591    -2.1583 H       
  43 H43            1.9233    -4.7843    -0.3000 H       
  44 H44            4.7936    -5.2742    -3.6692 H       
  45 H45            4.8837    -2.2666    -7.1384 H       
  46 H46            3.0644    -0.6341     5.1942 H       
  47 H47            5.2970    -3.2334     5.2324 H       
  48 H48            5.7557    -1.5811     5.7138 H       
  49 H49            5.5350    -4.0000     7.5638 H       
  50 H50            7.0448    -3.2318     7.0166 H       
  51 H51            4.0920    -2.7665     9.0802 H       
  52 H52            4.5943    -1.1372     9.5918 H       
  53 H53            2.3400    -0.4042     8.7463 H       
@<TRIPOS>BOND
   1    1    2 1
   2    1   33 1
   3    1   34 1
   4    1   35 1
   5    2    3 1
   6    3    8 ar
   7    3    4 ar
   8    4    5 ar
   9    4   36 1
  10    5    6 ar
  11    6    7 ar
  12    6   21 1
  13    7    8 ar
  14    7   37 1
  15    8    9 1
  16    9   10 1
  17    9   38 1
  18    9   39 1
  19   10   15 ar
  20   10   11 ar
  21   11   12 ar
  22   11   40 1
  23   12   13 ar
  24   12   41 1
  25   13   14 ar
  26   13   16 1
  27   14   15 ar
  28   14   42 1
  29   15   43 1
  30   16   20 1
  31   16   17 2
  32   17   18 1
  33   17   44 1
  34   18   19 1
  35   19   20 2
  36   19   45 1
  37   21   22 2
  38   21   23 am
  39   23   24 1
  40   23   46 1
  41   24   25 1
  42   24   30 1
  43   24   26 1
  44   26   27 1
  45   26   47 1
  46   26   48 1
  47   27   28 1
  48   27   49 1
  49   27   50 1
  50   28   29 1
  51   29   30 1
  52   29   51 1
  53   29   52 1
  54   30   31 1
  55   30   32 1
  56   32   53 1

#	End of record

