#	Name: ASD01901205
#	Creating user name:	WinNT
#	Creation time:	15. 06. 2019 19:53

#	Modifying user name:	WinNT
#	Modification time:	15. 06. 2019 19:53

#	Program:	/corina/corina34_cracker 3.40 0067  02.08.2006

@<TRIPOS>MOLECULE
ASD01901205
  51   54    0    0    0
SMALL
NO_CHARGES


@<TRIPOS>ATOM
   1 C1             0.2156     1.5465    -1.9394 C.ar    
   2 C2             0.2618     0.1890    -2.1786 C.ar    
   3 C3             1.4805    -0.4505    -2.3228 C.ar    
   4 C4             2.6609     0.2654    -2.2278 C.ar    
   5 C5             2.6304     1.6233    -1.9884 C.ar    
   6 C6             1.4035     2.2762    -1.8426 C.ar    
   7 C7             1.3637     3.6861    -1.5948 C.1     
   8 C8             1.3310     4.8419    -1.3917 C.1     
   9 C9             1.2912     6.2517    -1.1439 C.ar    
  10 C10            2.4802     6.9799    -1.0474 C.ar    
  11 C11            2.4382     8.3378    -0.8091 C.ar    
  12 C12            1.2153     8.9828    -0.6649 C.ar    
  13 C13            0.0287     8.2616    -0.7602 C.ar    
  14 C14            0.0626     6.9042    -1.0036 C.ar    
  15 N15            1.1771    10.3631    -0.4223 N.am    
  16 C16            1.1295    11.2174    -1.4608 C.2     
  17 C17            1.1886    12.7043    -1.2163 C.3     
  18 C18            0.4733    13.0268     0.0977 C.3     
  19 N19            0.9153    12.0947     1.1367 N.am    
  20 C20            1.1831    10.8128     0.8436 C.2     
  21 O21            1.0394    10.7919    -2.5925 O.2     
  22 O22            1.4419    10.0410     1.7460 O.2     
  23 C23            0.8125    14.4580     0.5189 C.3     
  24 C24           -1.0163    12.8987    -0.0911 C.ar    
  25 C25           -1.7599    12.0687     0.7342 C.ar    
  26 C26           -3.1274    11.9821     0.5237 C.ar    
  27 C27           -3.7002    12.7207    -0.4946 C.ar    
  28 N28           -2.9618    13.4999    -1.2602 N.ar    
  29 C29           -1.6594    13.6113    -1.0852 C.ar    
  30 F30           -1.1575     8.8925    -0.6189 F       
  31 Cl31           3.9148     9.2427    -0.6887 Cl      
  32 C32            1.0618    12.5671     2.5157 C.3     
  33 H33           -0.7363     2.0451    -1.8315 H       
  34 H34           -0.6553    -0.3763    -2.2533 H       
  35 H35            1.5106    -1.5137    -2.5100 H       
  36 H36            3.6084    -0.2404    -2.3410 H       
  37 H37            3.5525     2.1807    -1.9138 H       
  38 H38            3.4309     6.4798    -1.1590 H       
  39 H39           -0.8584     6.3456    -1.0819 H       
  40 H40            2.2294    13.0217    -1.1518 H       
  41 H41            0.6974    13.2281    -2.0364 H       
  42 H42            1.8898    14.5508     0.6559 H       
  43 H43            0.4835    15.1520    -0.2546 H       
  44 H44            0.3057    14.6909     1.4554 H       
  45 H45           -1.2849    11.5029     1.5220 H       
  46 H46           -3.7374    11.3453     1.1472 H       
  47 H47           -4.7648    12.6585    -0.6654 H       
  48 H48           -1.0881    14.2635    -1.7291 H       
  49 H49            0.1201    12.4325     3.0479 H       
  50 H50            1.8455    11.9964     3.0139 H       
  51 H51            1.3288    13.6239     2.5113 H       
@<TRIPOS>BOND
   1    1    2 ar
   2    1    6 ar
   3    1   33 1
   4    2    3 ar
   5    2   34 1
   6    3    4 ar
   7    3   35 1
   8    4    5 ar
   9    4   36 1
  10    5    6 ar
  11    5   37 1
  12    6    7 1
  13    7    8 3
  14    8    9 1
  15    9   10 ar
  16    9   14 ar
  17   10   11 ar
  18   10   38 1
  19   11   12 ar
  20   11   31 1
  21   12   13 ar
  22   12   15 1
  23   13   14 ar
  24   13   30 1
  25   14   39 1
  26   15   16 am
  27   15   20 am
  28   16   17 1
  29   16   21 2
  30   17   18 1
  31   17   40 1
  32   17   41 1
  33   18   19 1
  34   18   23 1
  35   18   24 1
  36   19   20 am
  37   19   32 1
  38   20   22 2
  39   23   42 1
  40   23   43 1
  41   23   44 1
  42   24   25 ar
  43   24   29 ar
  44   25   26 ar
  45   25   45 1
  46   26   27 ar
  47   26   46 1
  48   27   28 ar
  49   27   47 1
  50   28   29 ar
  51   29   48 1
  52   32   49 1
  53   32   50 1
  54   32   51 1

#	End of record

