#	Name: ASD01882836
#	Creating user name:	WinNT
#	Creation time:	15. 06. 2019 19:45

#	Modifying user name:	WinNT
#	Modification time:	15. 06. 2019 19:45

#	Program:	/corina/corina34_cracker 3.40 0067  02.08.2006

@<TRIPOS>MOLECULE
ASD01882836
  43   46    0    0    0
SMALL
NO_CHARGES


@<TRIPOS>ATOM
   1 N1            -0.0161     1.3329     0.0094 N.2     
   2 C2             0.0021    -0.0041     0.0020 C.2     
   3 C3             1.2440    -0.6881    -0.0135 C.2     
   4 C4             2.3788     0.0422    -0.0204 C.2     
   5 C5             1.1060     2.0398     0.0025 C.2     
   6 O6             1.2297     3.3850     0.0085 O.3     
   7 N7             2.3029     1.4068    -0.0124 N.pl3   
   8 C8             3.3806     2.4106    -0.0172 C.3     
   9 C9             2.6345     3.7559    -0.0029 C.3     
  10 O10           -1.0453    -0.6326     0.0090 O.2     
  11 C11            2.9645     4.5645    -1.2592 C.3     
  12 O12            2.2842     5.8202    -1.2098 O.3     
  13 C13            2.4713     6.6650    -2.2578 C.ar    
  14 C14            1.8465     7.9025    -2.2732 C.ar    
  15 C15            3.2924     6.2937    -3.3122 C.ar    
  16 C16            3.4797     7.1554    -4.3744 C.ar    
  17 C17            2.0359     8.7639    -3.3394 C.ar    
  18 C18            1.4770    10.1478    -3.5925 C.3     
  19 C19            2.8512     8.3894    -4.3920 C.ar    
  20 C20            2.8934     9.4957    -5.4245 C.3     
  21 C21            2.3769    10.7521    -4.6912 C.3     
  22 C22            4.3291     9.7207    -5.9031 C.3     
  23 C23            1.9859     9.1526    -6.6076 C.3     
  24 H24            1.2808    -1.7674    -0.0193 H       
  25 H25            3.3408    -0.4486    -0.0319 H       
  26 H26            4.0021     2.3086     0.8724 H       
  27 H27            3.9850     2.3182    -0.9196 H       
  28 H28            2.8867     4.3224     0.8935 H       
  29 H29            4.0398     4.7356    -1.3091 H       
  30 H30            2.6431     4.0117    -2.1419 H       
  31 H31            1.2101     8.1948    -1.4511 H       
  32 H32            3.7847     5.3325    -3.3021 H       
  33 H33            4.1193     6.8661    -5.1951 H       
  34 H34            0.4466    10.0815    -3.9417 H       
  35 H35            1.5318    10.7495    -2.6854 H       
  36 H36            1.7959    11.3820    -5.3649 H       
  37 H37            3.2025    11.3117    -4.2515 H       
  38 H38            4.7025     8.8106    -6.3725 H       
  39 H39            4.3475    10.5363    -6.6260 H       
  40 H40            4.9602     9.9756    -5.0517 H       
  41 H41            0.9657     9.0071    -6.2527 H       
  42 H42            2.0065     9.9687    -7.3299 H       
  43 H43            2.3392     8.2376    -7.0831 H       
@<TRIPOS>BOND
   1    1    2 1
   2    1    5 2
   3    2    3 1
   4    2   10 2
   5    3    4 2
   6    3   24 1
   7    4    7 1
   8    4   25 1
   9    5    7 1
  10    5    6 1
  11    6    9 1
  12    7    8 1
  13    8    9 1
  14    8   26 1
  15    8   27 1
  16    9   11 1
  17    9   28 1
  18   11   12 1
  19   11   29 1
  20   11   30 1
  21   12   13 1
  22   13   15 ar
  23   13   14 ar
  24   14   17 ar
  25   14   31 1
  26   15   16 ar
  27   15   32 1
  28   16   19 ar
  29   16   33 1
  30   17   19 ar
  31   17   18 1
  32   18   21 1
  33   18   34 1
  34   18   35 1
  35   19   20 1
  36   20   21 1
  37   20   22 1
  38   20   23 1
  39   21   36 1
  40   21   37 1
  41   22   38 1
  42   22   39 1
  43   22   40 1
  44   23   41 1
  45   23   42 1
  46   23   43 1

#	End of record

