#	Name: ASD04910496
#	Creating user name:	WinNT
#	Creation time:	15. 06. 2019 20:56

#	Modifying user name:	WinNT
#	Modification time:	15. 06. 2019 20:56

#	Program:	/corina/corina34_cracker 3.40 0067  02.08.2006

@<TRIPOS>MOLECULE
ASD04910496
  52   55    0    0    0
SMALL
NO_CHARGES


@<TRIPOS>ATOM
   1 C1            -0.1471     1.3004    -0.4538 C.ar    
   2 C2            -0.0909    -0.0671    -0.2819 C.ar    
   3 C3             1.1328    -0.7099    -0.2183 C.ar    
   4 C4             2.3076     0.0131    -0.3268 C.ar    
   5 C5             2.2659     1.3810    -0.4994 C.ar    
   6 C6             1.0345     2.0361    -0.5641 C.ar    
   7 C7             0.9821     3.5008    -0.7493 C.2     
   8 O8            -0.2076     4.1297    -0.8113 O.3     
   9 O9             2.0117     4.1380    -0.8457 O.2     
  10 C10            1.1863    -2.2040    -0.0293 C.3     
  11 C11            1.4341    -2.8802    -1.3792 C.3     
  12 N12            2.2738    -2.5410     0.8926 N.pl3   
  13 C13            1.5397    -4.4041    -1.1939 C.3     
  14 C14            2.0484    -2.5326     2.2727 C.ar    
  15 C15            3.0362    -2.9721     3.1518 C.ar    
  16 C16            2.7691    -2.9454     4.5092 C.ar    
  17 C17            1.5341    -2.4848     4.9477 C.ar    
  18 N18            0.6190    -2.0747     4.0847 N.ar    
  19 C19            0.8397    -2.0807     2.7850 C.ar    
  20 N20            1.2545    -2.4544     6.3187 N.pl3   
  21 C21            0.0964    -2.0317     6.8905 C.2     
  22 C22            0.2301    -2.1629     8.2311 C.2     
  23 C23            1.5051    -2.6802     8.4891 C.2     
  24 N24            2.1162    -2.8601     7.3460 N.2     
  25 Cl25          -0.9681    -1.7601     9.4209 Cl      
  26 C26            0.2381    -2.6328    -2.3217 C.3     
  27 C27            0.0917    -3.9602    -3.1063 C.3     
  28 C28            0.4042    -5.0295    -2.0302 C.3     
  29 C29            2.0747    -2.9836     9.8509 C.3     
  30 H30           -1.1029     1.8003    -0.5075 H       
  31 H31           -1.0041    -0.6374    -0.1965 H       
  32 H32            3.2594    -0.4948    -0.2759 H       
  33 H33            3.1836     1.9442    -0.5836 H       
  34 H34           -0.1913     5.0888    -0.9333 H       
  35 H35            0.2393    -2.5522     0.3831 H       
  36 H36            2.3496    -2.4942    -1.8274 H       
  37 H37            3.1503    -2.7700     0.5457 H       
  38 H38            2.5062    -4.7578    -1.5529 H       
  39 H39            1.4145    -4.6619    -0.1423 H       
  40 H40            3.9875    -3.3256     2.7824 H       
  41 H41            3.5115    -3.2790     5.2191 H       
  42 H42            0.0686    -1.7385     2.1107 H       
  43 H43           -0.7730    -1.6583     6.3697 H       
  44 H44           -0.6649    -2.4281    -1.7464 H       
  45 H45            0.4528    -1.8090    -3.0024 H       
  46 H46           -0.9246    -4.0764    -3.4826 H       
  47 H47            0.8144    -4.0091    -3.9208 H       
  48 H48            0.7402    -5.9548    -2.4981 H       
  49 H49           -0.4719    -5.2119    -1.4079 H       
  50 H50            1.8358    -4.0114    10.1239 H       
  51 H51            3.1569    -2.8556     9.8288 H       
  52 H52            1.6433    -2.3030    10.5850 H       
@<TRIPOS>BOND
   1    1    2 ar
   2    1    6 ar
   3    1   30 1
   4    2    3 ar
   5    2   31 1
   6    3    4 ar
   7    3   10 1
   8    4    5 ar
   9    4   32 1
  10    5    6 ar
  11    5   33 1
  12    6    7 1
  13    7    8 1
  14    7    9 2
  15    8   34 1
  16   10   11 1
  17   10   12 1
  18   10   35 1
  19   11   13 1
  20   11   26 1
  21   11   36 1
  22   12   14 1
  23   12   37 1
  24   13   28 1
  25   13   38 1
  26   13   39 1
  27   14   15 ar
  28   14   19 ar
  29   15   16 ar
  30   15   40 1
  31   16   17 ar
  32   16   41 1
  33   17   18 ar
  34   17   20 1
  35   18   19 ar
  36   19   42 1
  37   20   21 1
  38   20   24 1
  39   21   22 2
  40   21   43 1
  41   22   23 1
  42   22   25 1
  43   23   24 2
  44   23   29 1
  45   26   27 1
  46   26   44 1
  47   26   45 1
  48   27   28 1
  49   27   46 1
  50   27   47 1
  51   28   48 1
  52   28   49 1
  53   29   50 1
  54   29   51 1
  55   29   52 1

#	End of record

