#	Name: ASD09720043
#	Creating user name:	WinNT
#	Creation time:	15. 06. 2019 21:22

#	Modifying user name:	WinNT
#	Modification time:	15. 06. 2019 21:22

#	Program:	/corina/corina34_cracker 3.40 0067  02.08.2006

@<TRIPOS>MOLECULE
ASD09720043
  31   32    0    0    0
SMALL
NO_CHARGES


@<TRIPOS>ATOM
   1 C1            -0.0155     1.4721     0.0370 C.ar    
   2 C2             0.0021    -0.0041     0.0020 C.2     
   3 N3             1.1255    -0.6349    -0.1097 N.2     
   4 C4            -1.2891    -0.7754     0.0966 C.3     
   5 O5             2.3237     0.0866    -0.3304 O.3     
   6 S6            -0.9377    -2.5537     0.0258 S.3     
   7 C7            -2.5387    -3.2793     0.1483 C.ar    
   8 C8            -2.6802    -4.6616     0.1293 C.ar    
   9 C9            -3.9364    -5.2267     0.2254 C.ar    
  10 C10           -5.0530    -4.4188     0.3400 C.ar    
  11 C11           -4.9161    -3.0427     0.3589 C.ar    
  12 C12           -3.6624    -2.4707     0.2698 C.ar    
  13 C13            1.0399     2.1693     0.6213 C.ar    
  14 C14            1.0154     3.5628     0.6494 C.ar    
  15 C15           -0.0657     4.2505     0.0925 C.ar    
  16 C16           -1.1082     3.5529    -0.4849 C.ar    
  17 C17           -1.0878     2.1730    -0.5210 C.ar    
  18 H18           -1.9416     4.0895    -0.9137 H       
  19 C19            2.0954     4.2877     1.2483 C.1     
  20 N20            2.9523     4.8627     1.7233 N.1     
  21 H21           -1.7847    -0.5402     1.0384 H       
  22 H22           -1.9385    -0.5001    -0.7344 H       
  23 H23            3.1110    -0.4705    -0.4004 H       
  24 H24           -1.8087    -5.2932     0.0390 H       
  25 H25           -4.0472    -6.3009     0.2107 H       
  26 H26           -6.0344    -4.8635     0.4147 H       
  27 H27           -5.7903    -2.4148     0.4481 H       
  28 H28           -3.5562    -1.3960     0.2846 H       
  29 H29            1.8729     1.6326     1.0507 H       
  30 H30           -0.0862     5.3301     0.1139 H       
  31 H31           -1.9063     1.6338    -0.9745 H       
@<TRIPOS>BOND
   1    1    2 1
   2    1   13 ar
   3    1   17 ar
   4    2    3 2
   5    2    4 1
   6    3    5 1
   7    4    6 1
   8    4   21 1
   9    4   22 1
  10    5   23 1
  11    6    7 1
  12    7    8 ar
  13    7   12 ar
  14    8    9 ar
  15    8   24 1
  16    9   10 ar
  17    9   25 1
  18   10   11 ar
  19   10   26 1
  20   11   12 ar
  21   11   27 1
  22   12   28 1
  23   13   14 ar
  24   13   29 1
  25   14   15 ar
  26   14   19 1
  27   15   16 ar
  28   15   30 1
  29   16   17 ar
  30   16   18 1
  31   17   31 1
  32   19   20 3

#	End of record

