#	Name: ASD01028304
#	Creating user name:	WinNT
#	Creation time:	15. 06. 2019 18:56

#	Modifying user name:	WinNT
#	Modification time:	15. 06. 2019 18:56

#	Program:	/corina/corina34_cracker 3.40 0067  02.08.2006

@<TRIPOS>MOLECULE
ASD01028304
  54   58    0    0    0
SMALL
NO_CHARGES


@<TRIPOS>ATOM
   1 C1            -0.0165     1.3658     0.0096 C.ar    
   2 C2             0.0021    -0.0041     0.0020 C.ar    
   3 C3             1.1871     2.0786     0.0019 C.ar    
   4 N4             2.3453     1.4655    -0.0129 N.ar    
   5 C5             2.4265     0.1343    -0.0208 C.ar    
   6 C6             1.2509    -0.6527    -0.0134 C.ar    
   7 C7             3.6823    -0.5215    -0.0362 C.ar    
   8 C8             3.6925    -1.9066    -0.0433 C.ar    
   9 C9             2.4925    -2.6050    -0.0352 C.ar    
  10 N10            1.3341    -1.9873    -0.0204 N.ar    
  11 N11            4.8661     0.2018    -0.0444 N.pl3   
  12 C12            6.1526    -0.4989    -0.0603 C.3     
  13 C13            7.2733     0.5086    -0.0666 C.2     
  14 N14            7.8769     1.0364     1.0207 N.pl3   
  15 C15            8.8325     1.9011     0.5416 C.2     
  16 N16            8.7623     1.8556    -0.7787 N.2     
  17 N17            7.8416     1.0260    -1.1272 N.2     
  18 N18            7.7110     0.8692     2.3970 N.2     
  19 C19            8.4640     1.5344     3.2449 C.2     
  20 C20            9.4529     2.4294     2.7843 C.2     
  21 C21            9.6382     2.6128     1.4504 C.2     
  22 C22            8.2713     1.3420     4.7033 C.ar    
  23 O23           -1.2013     2.0306     0.0188 O.3     
  24 C24           -1.1440     3.4584     0.0263 C.3     
  25 C25            7.2976     0.4612     5.1698 C.ar    
  26 C26            7.1225     0.2853     6.5277 C.ar    
  27 C27            7.9112     0.9812     7.4253 C.ar    
  28 C28            8.8804     1.8579     6.9681 C.ar    
  29 C29            9.0675     2.0373     5.6115 C.ar    
  30 Cl30           9.8665     2.7279     8.1015 Cl      
  31 C31            7.7148     0.7851     8.9066 C.3     
  32 N32            6.3809     0.2212     9.1532 N.3     
  33 C33            8.7807    -0.1742     9.4398 C.3     
  34 H34           -0.9171    -0.5710     0.0081 H       
  35 H35            1.1613     3.1582     0.0079 H       
  36 H36            4.6307    -2.4414    -0.0554 H       
  37 H37            2.5125    -3.6848    -0.0412 H       
  38 H38            4.8421     1.1715    -0.0396 H       
  39 H39            6.2346    -1.1281     0.8259 H       
  40 H40            6.2171    -1.1197    -0.9539 H       
  41 H41           10.0637     2.9691     3.4928 H       
  42 H42           10.3938     3.2963     1.0923 H       
  43 H43           -0.6118     3.7960     0.9156 H       
  44 H44           -0.6203     3.8057    -0.8643 H       
  45 H45           -2.1563     3.8626     0.0332 H       
  46 H46            6.6806    -0.0828     4.4700 H       
  47 H47            6.3677    -0.3971     6.8897 H       
  48 H48            9.8236     2.7213     5.2553 H       
  49 H49            7.8030     1.7452     9.4150 H       
  50 H50            6.2248     0.0802    10.1400 H       
  51 H51            5.6618     0.8051     8.7531 H       
  52 H52            8.6924    -1.1343     8.9314 H       
  53 H53            9.7704     0.2442     9.2568 H       
  54 H54            8.6386    -0.3160    10.5112 H       
@<TRIPOS>BOND
   1    1    2 ar
   2    1    3 ar
   3    1   23 1
   4    2    6 ar
   5    2   34 1
   6    3    4 ar
   7    3   35 1
   8    4    5 ar
   9    5    6 ar
  10    5    7 ar
  11    6   10 ar
  12    7    8 ar
  13    7   11 1
  14    8    9 ar
  15    8   36 1
  16    9   10 ar
  17    9   37 1
  18   11   12 1
  19   11   38 1
  20   12   13 1
  21   12   39 1
  22   12   40 1
  23   13   14 1
  24   13   17 2
  25   14   15 1
  26   14   18 1
  27   15   16 2
  28   15   21 1
  29   16   17 1
  30   18   19 2
  31   19   20 1
  32   19   22 1
  33   20   21 2
  34   20   41 1
  35   21   42 1
  36   22   25 ar
  37   22   29 ar
  38   23   24 1
  39   24   43 1
  40   24   44 1
  41   24   45 1
  42   25   26 ar
  43   25   46 1
  44   26   27 ar
  45   26   47 1
  46   27   28 ar
  47   27   31 1
  48   28   29 ar
  49   28   30 1
  50   29   48 1
  51   31   32 1
  52   31   33 1
  53   31   49 1
  54   32   50 1
  55   32   51 1
  56   33   52 1
  57   33   53 1
  58   33   54 1

#	End of record

