#	Name: ASD02500003
#	Creating user name:	WinNT
#	Creation time:	15. 06. 2019 20:22

#	Modifying user name:	WinNT
#	Modification time:	15. 06. 2019 20:22

#	Program:	/corina/corina34_cracker 3.40 0067  02.08.2006

@<TRIPOS>MOLECULE
ASD02500003
  41   44    0    0    0
SMALL
NO_CHARGES


@<TRIPOS>ATOM
   1 S1            -0.0217     1.7518     0.0117 S.3     
   2 C2             0.0021    -0.0041     0.0020 C.2     
   3 C3             1.2523    -0.4487    -0.0123 C.2     
   4 C4             1.7366     1.8147    -0.0048 C.2     
   5 C5             2.2479     0.5364    -0.0165 C.2     
   6 N6             3.6402     0.6280    -0.0298 N.pl3   
   7 C7             4.0263     1.9461    -0.0266 C.2     
   8 S8            -1.4306    -1.0298     0.0102 S.o     
   9 C9            -1.7459    -1.2762     1.7795 C.3     
  10 O10           -2.4328    -0.1834    -0.5361 O.2     
  11 C11            2.9901     4.1455    -0.0044 C.2     
  12 C12            2.8735     2.7366    -0.0107 C.2     
  13 C13            5.2833     2.5881    -0.0352 C.2     
  14 N14            5.3359     3.9352    -0.0282 N.am    
  15 N15            4.1680     4.7029    -0.0122 N.2     
  16 O16            6.3118     1.9306    -0.0484 O.2     
  17 C17            6.6385     4.6054    -0.0370 C.3     
  18 C18            7.0715     4.8432    -1.4608 C.ar    
  19 C19            7.8132     3.8842    -2.1265 C.ar    
  20 C20            6.7224     6.0157    -2.1012 C.ar    
  21 C21            7.1216     6.2338    -3.4139 C.ar    
  22 C22            7.8708     5.2710    -4.0777 C.ar    
  23 C23            8.2125     4.0982    -3.4328 C.ar    
  24 N24            6.7698     7.4185    -4.0648 N.pl3   
  25 C25            4.5566    -0.5150    -0.0441 C.3     
  26 H26            1.4871    -1.5029    -0.0199 H       
  27 H27           -1.9190    -0.3111     2.2556 H       
  28 H28           -2.6254    -1.9073     1.9074 H       
  29 H29           -0.8829    -1.7583     2.2387 H       
  30 H30            2.1022     4.7603     0.0071 H       
  31 H31            6.5595     5.5602     0.4829 H       
  32 H32            7.3737     3.9775     0.4662 H       
  33 H33            8.0814     2.9662    -1.6247 H       
  34 H34            6.1394     6.7622    -1.5822 H       
  35 H35            8.1828     5.4374    -5.0982 H       
  36 H36            8.7922     3.3477    -3.9495 H       
  37 H37            6.2463     8.0900    -3.6003 H       
  38 H38            7.0491     7.5697    -4.9813 H       
  39 H39            4.7741    -0.7933    -1.0753 H       
  40 H40            5.4831    -0.2443     0.4623 H       
  41 H41            4.0944    -1.3577     0.4700 H       
@<TRIPOS>BOND
   1    1    2 1
   2    1    4 1
   3    2    3 2
   4    2    8 1
   5    3    5 1
   6    3   26 1
   7    4    5 2
   8    4   12 1
   9    5    6 1
  10    6    7 1
  11    6   25 1
  12    7   13 1
  13    7   12 2
  14    8    9 1
  15    8   10 2
  16    9   27 1
  17    9   28 1
  18    9   29 1
  19   11   12 1
  20   11   15 2
  21   11   30 1
  22   13   14 am
  23   13   16 2
  24   14   15 1
  25   14   17 1
  26   17   18 1
  27   17   31 1
  28   17   32 1
  29   18   20 ar
  30   18   19 ar
  31   19   23 ar
  32   19   33 1
  33   20   21 ar
  34   20   34 1
  35   21   22 ar
  36   21   24 1
  37   22   23 ar
  38   22   35 1
  39   23   36 1
  40   24   37 1
  41   24   38 1
  42   25   39 1
  43   25   40 1
  44   25   41 1

#	End of record

