#	Name: ASD05490121
#	Creating user name:	WinNT
#	Creation time:	15. 06. 2019 21:01

#	Modifying user name:	WinNT
#	Modification time:	15. 06. 2019 21:01

#	Program:	/corina/corina34_cracker 3.40 0067  02.08.2006

@<TRIPOS>MOLECULE
ASD05490121
  78   83    0    0    0
SMALL
NO_CHARGES


@<TRIPOS>ATOM
   1 N1            -0.0850     1.3570    -0.0778 N.pl3   
   2 O2             4.5794     2.2705    -0.7157 O.3     
   3 N3             2.9997     3.9453    -0.5564 N.ar    
   4 C4             1.7494     4.3697    -0.4052 C.ar    
   5 C5             3.2886     2.6523    -0.5575 C.ar    
   6 N6             2.3618     1.7219    -0.4088 N.ar    
   7 C7             1.0855     2.0576    -0.2513 C.ar    
   8 C8             0.7315     3.4161    -0.2444 C.ar    
   9 N9             1.4568     5.7235    -0.4057 N.pl3   
  10 C10           -1.0976     2.2697     0.0230 C.2     
  11 N11           -0.6140     3.4803    -0.0702 N.2     
  12 C12            5.5486     3.3089    -0.8721 C.3     
  13 C13            6.9379     2.6893    -1.0365 C.3     
  14 C14            7.9596     3.7924    -1.3286 C.3     
  15 C15            9.3572     3.1733    -1.4133 C.3     
  16 C16           -0.2222    -0.1003    -0.0184 C.3     
  17 C17           -0.0847    -0.5600     1.4102 C.ar    
  18 C18           -1.2054    -0.6524     2.2152 C.ar    
  19 C19           -1.0852    -1.0728     3.5245 C.ar    
  20 C20            0.1681    -1.4048     4.0345 C.ar    
  21 C21            1.2940    -1.3102     3.2187 C.ar    
  22 C22            1.1616    -0.8934     1.9099 C.ar    
  23 C23            0.3036    -1.8569     5.4413 C.ar    
  24 O24            9.6510     2.4946    -0.1905 O.3     
  25 C25            8.7564     1.4218     0.1108 C.3     
  26 C26            7.3346     1.9705     0.2567 C.3     
  27 C27            1.1251    -1.1586     6.3242 C.ar    
  28 C28           -0.3943    -2.9777     5.8858 C.ar    
  29 C29           -0.2645    -3.3939     7.1955 C.ar    
  30 C30            0.5566    -2.7005     8.0659 C.ar    
  31 C31            1.2475    -1.5835     7.6314 C.ar    
  32 C32            3.4766    -2.8575     8.7302 C.3     
  33 C33            4.7628    -3.2272     9.4920 C.3     
  34 C34            5.4897    -1.8842     9.7327 C.3     
  35 C35            4.3456    -0.8457     9.6184 C.3     
  36 N36            3.4980    -1.3925     8.5281 N.3     
  37 C37            2.1408    -0.8333     8.5856 C.3     
  38 O38           -2.4046     1.9653     0.2012 O.3     
  39 C39           -3.3187     3.0598     0.2940 C.3     
  40 C40           -2.3072    -1.1721     4.4008 C.3     
  41 F41           -3.4121    -0.6478     3.7213 F       
  42 F42           -2.5473    -2.5138     4.7159 F       
  43 F43           -2.0968    -0.4469     5.5784 F       
  44 H44            2.1682     6.3734    -0.5173 H       
  45 H45            0.5405     6.0217    -0.2945 H       
  46 H46            5.3078     3.9005    -1.7554 H       
  47 H47            5.5389     3.9507     0.0088 H       
  48 H48            6.9242     1.9771    -1.8615 H       
  49 H49            7.7160     4.2729    -2.2762 H       
  50 H50            7.9366     4.5316    -0.5279 H       
  51 H51            9.3910     2.4638    -2.2401 H       
  52 H52           10.0937     3.9597    -1.5786 H       
  53 H53           -1.2016    -0.3889    -0.4002 H       
  54 H54            0.5554    -0.5636    -0.6256 H       
  55 H55           -2.1765    -0.3948     1.8188 H       
  56 H56            2.2679    -1.5664     3.6090 H       
  57 H57            2.0334    -0.8197     1.2768 H       
  58 H58            8.7823     0.6894    -0.6960 H       
  59 H59            9.0600     0.9464     1.0435 H       
  60 H60            7.2989     2.6729     1.0895 H       
  61 H61            6.6440     1.1480     0.4429 H       
  62 H62            1.6652    -0.2867     5.9860 H       
  63 H63           -1.0361    -3.5198     5.2070 H       
  64 H64           -0.8054    -4.2625     7.5412 H       
  65 H65            0.6550    -3.0294     9.0899 H       
  66 H66            3.4573    -3.3652     7.7658 H       
  67 H67            2.6029    -3.1385     9.3183 H       
  68 H68            4.5167    -3.6999    10.4429 H       
  69 H69            5.3828    -3.8901     8.8884 H       
  70 H70            5.9350    -1.8595    10.7273 H       
  71 H71            6.2452    -1.7118     8.9662 H       
  72 H72            3.7836    -0.7882    10.5505 H       
  73 H73            4.7402     0.1329     9.3448 H       
  74 H74            2.1694     0.2195     8.3049 H       
  75 H75            1.7512    -0.9287     9.5991 H       
  76 H76           -4.3297     2.6777     0.4355 H       
  77 H77           -3.0465     3.6897     1.1409 H       
  78 H78           -3.2771     3.6467    -0.6235 H       
@<TRIPOS>BOND
   1    1   16 1
   2    1    7 1
   3    1   10 1
   4    2   12 1
   5    2    5 1
   6    3    4 ar
   7    3    5 ar
   8    4    9 1
   9    4    8 ar
  10    5    6 ar
  11    6    7 ar
  12    7    8 ar
  13    8   11 1
  14    9   44 1
  15    9   45 1
  16   10   11 2
  17   10   38 1
  18   12   13 1
  19   12   46 1
  20   12   47 1
  21   13   14 1
  22   13   26 1
  23   13   48 1
  24   14   15 1
  25   14   49 1
  26   14   50 1
  27   15   24 1
  28   15   51 1
  29   15   52 1
  30   16   17 1
  31   16   53 1
  32   16   54 1
  33   17   18 ar
  34   17   22 ar
  35   18   19 ar
  36   18   55 1
  37   19   20 ar
  38   19   40 1
  39   20   21 ar
  40   20   23 1
  41   21   22 ar
  42   21   56 1
  43   22   57 1
  44   23   27 ar
  45   23   28 ar
  46   24   25 1
  47   25   26 1
  48   25   58 1
  49   25   59 1
  50   26   60 1
  51   26   61 1
  52   27   31 ar
  53   27   62 1
  54   28   29 ar
  55   28   63 1
  56   29   30 ar
  57   29   64 1
  58   30   31 ar
  59   30   65 1
  60   31   37 1
  61   32   33 1
  62   32   36 1
  63   32   66 1
  64   32   67 1
  65   33   34 1
  66   33   68 1
  67   33   69 1
  68   34   35 1
  69   34   70 1
  70   34   71 1
  71   35   36 1
  72   35   72 1
  73   35   73 1
  74   36   37 1
  75   37   74 1
  76   37   75 1
  77   38   39 1
  78   39   76 1
  79   39   77 1
  80   39   78 1
  81   40   41 1
  82   40   42 1
  83   40   43 1

#	End of record

