#	Name: ASD01910302
#	Creating user name:	WinNT
#	Creation time:	15. 06. 2019 19:55

#	Modifying user name:	WinNT
#	Modification time:	15. 06. 2019 19:55

#	Program:	/corina/corina34_cracker 3.40 0067  02.08.2006

@<TRIPOS>MOLECULE
ASD01910302
  43   46    0    0    0
SMALL
NO_CHARGES


@<TRIPOS>ATOM
   1 C1            -0.6251     2.2483     0.1827 C.ar    
   2 C2             1.6391     0.6480     0.2662 C.ar    
   3 C3             1.7655     2.0340     0.2036 C.ar    
   4 C4             0.6247     2.8325     0.1614 C.ar    
   5 C5             3.1122     2.6582     0.1809 C.2     
   6 N6             3.3816     3.9473     0.1233 N.2     
   7 N7             4.6632     4.0827     0.1231 N.pl3   
   8 N8             5.2142     2.9206     0.1786 N.2     
   9 N9             4.2909     2.0209     0.2208 N.2     
  10 C10            5.3805     5.3588     0.0674 C.3     
  11 C11            6.2537     5.5088     1.3153 C.3     
  12 C12            6.9783     6.8562     1.2740 C.3     
  13 C13            7.8852     6.9062     0.0404 C.3     
  14 N14            7.0772     6.6188    -1.1526 N.am    
  15 C15            6.2693     5.3918    -1.1799 C.3     
  16 C16            7.0770     7.4645    -2.2019 C.2     
  17 C17            6.3644     7.1006    -3.4438 C.ar    
  18 O18            7.6631     8.5269    -2.1265 O.2     
  19 C19            5.6187     8.0536    -4.1382 C.ar    
  20 N20            4.9831     7.7306    -5.2454 N.ar    
  21 C21            5.0235     6.5061    -5.7407 C.ar    
  22 C22            5.7437     5.5027    -5.1085 C.ar    
  23 C23            6.4315     5.7940    -3.9463 C.ar    
  24 F24            4.3530     6.2269    -6.8798 F       
  25 F25           -1.9721     0.3015     0.2666 F       
  26 C26           -0.7465     0.8696     0.2460 C.ar    
  27 C27            0.3855     0.0719     0.2876 C.ar    
  28 H28           -1.5100     2.8668     0.1546 H       
  29 H29            2.5210     0.0255     0.2994 H       
  30 H30            0.7185     3.9073     0.1118 H       
  31 H31            4.6628     6.1781     0.0250 H       
  32 H32            5.6264     5.4610     2.2053 H       
  33 H33            6.9870     4.7029     1.3444 H       
  34 H34            6.2458     7.6617     1.2199 H       
  35 H35            7.5818     6.9725     2.1742 H       
  36 H36            8.3273     7.8985    -0.0481 H       
  37 H37            8.6738     6.1598     0.1361 H       
  38 H38            6.9261     4.5219    -1.1836 H       
  39 H39            5.6453     5.3850    -2.0735 H       
  40 H40            5.5620     9.0652    -3.7643 H       
  41 H41            5.7695     4.5056    -5.5227 H       
  42 H42            7.0003     5.0323    -3.4339 H       
  43 H43            0.2865    -1.0025     0.3364 H       
@<TRIPOS>BOND
   1    1   26 ar
   2    1    4 ar
   3    1   28 1
   4    2    3 ar
   5    2   27 ar
   6    2   29 1
   7    3    4 ar
   8    3    5 1
   9    4   30 1
  10    5    6 2
  11    5    9 1
  12    6    7 1
  13    7    8 1
  14    7   10 1
  15    8    9 2
  16   10   11 1
  17   10   15 1
  18   10   31 1
  19   11   12 1
  20   11   32 1
  21   11   33 1
  22   12   13 1
  23   12   34 1
  24   12   35 1
  25   13   14 1
  26   13   36 1
  27   13   37 1
  28   14   15 1
  29   14   16 am
  30   15   38 1
  31   15   39 1
  32   16   17 1
  33   16   18 2
  34   17   19 ar
  35   17   23 ar
  36   19   20 ar
  37   19   40 1
  38   20   21 ar
  39   21   22 ar
  40   21   24 1
  41   22   23 ar
  42   22   41 1
  43   23   42 1
  44   25   26 1
  45   26   27 ar
  46   27   43 1

#	End of record

