#	Name: ASD01810429
#	Creating user name:	WinNT
#	Creation time:	15. 06. 2019 19:24

#	Modifying user name:	WinNT
#	Modification time:	15. 06. 2019 19:24

#	Program:	/corina/corina34_cracker 3.40 0067  02.08.2006

@<TRIPOS>MOLECULE
ASD01810429
  42   45    0    0    0
SMALL
NO_CHARGES


@<TRIPOS>ATOM
   1 C1            -0.0158     1.3163     0.0093 C.ar    
   2 N2             0.0021    -0.0041     0.0020 N.ar    
   3 C3             2.2823    -0.1160    -0.0203 C.ar    
   4 C4             2.3586     1.2883    -0.0135 C.ar    
   5 C5             1.1743     2.0258     0.0017 C.ar    
   6 N6             3.4323    -0.8678    -0.0348 N.pl3   
   7 C7             4.6564    -0.3228    -0.0427 C.2     
   8 C8             4.8580     1.0428    -0.0368 C.2     
   9 C9             3.6841     1.9323    -0.0222 C.2     
  10 O10            3.8035     3.1446    -0.0164 O.2     
  11 C11            6.2189     1.5990    -0.0453 C.2     
  12 C12            3.3151    -2.3281    -0.0415 C.3     
  13 C13            3.2620    -2.8212    -1.4645 C.ar    
  14 O14            7.1797     0.8544    -0.0577 O.2     
  15 O15            6.4012     2.9346    -0.0394 O.3     
  16 C16            4.4331    -3.1426    -2.1266 C.ar    
  17 C17            4.3903    -3.5947    -3.4299 C.ar    
  18 C18            3.1643    -3.7272    -4.0787 C.ar    
  19 C19            1.9876    -3.4020    -3.4069 C.ar    
  20 C20            2.0418    -2.9562    -2.1019 C.ar    
  21 C21            3.1120    -4.2123    -5.4801 C.ar    
  22 C22            1.8860    -4.3448    -6.1289 C.ar    
  23 C23            1.8431    -4.7965    -7.4323 C.ar    
  24 C24            3.0143    -5.1180    -8.0944 C.ar    
  25 C25            4.2341    -4.9888    -7.4550 C.ar    
  26 C26            4.2890    -4.5317    -6.1539 C.ar    
  27 N27            1.0853    -0.6923    -0.0120 N.ar    
  28 H28           -0.9585     1.8433     0.0166 H       
  29 H29            1.1848     3.1058     0.0070 H       
  30 H30            5.5166    -0.9757    -0.0536 H       
  31 H31            4.1779    -2.7641     0.4622 H       
  32 H32            2.4037    -2.6218     0.4791 H       
  33 H33            7.3143     3.2530    -0.0455 H       
  34 H34            5.3829    -3.0392    -1.6229 H       
  35 H35            5.3053    -3.8451    -3.9461 H       
  36 H36            1.0347    -3.5029    -3.9051 H       
  37 H37            1.1304    -2.7039    -1.5802 H       
  38 H38            0.9709    -4.0948    -5.6126 H       
  39 H39            0.8934    -4.8996    -7.9361 H       
  40 H40            2.9762    -5.4714    -9.1142 H       
  41 H41            5.1454    -5.2415    -7.9765 H       
  42 H42            5.2420    -4.4309    -5.6557 H       
@<TRIPOS>BOND
   1    1    2 ar
   2    1    5 ar
   3    1   28 1
   4    2   27 ar
   5    3    4 ar
   6    3    6 1
   7    3   27 ar
   8    4    5 ar
   9    4    9 1
  10    5   29 1
  11    6    7 1
  12    6   12 1
  13    7    8 2
  14    7   30 1
  15    8    9 1
  16    8   11 1
  17    9   10 2
  18   11   14 2
  19   11   15 1
  20   12   13 1
  21   12   31 1
  22   12   32 1
  23   13   16 ar
  24   13   20 ar
  25   15   33 1
  26   16   17 ar
  27   16   34 1
  28   17   18 ar
  29   17   35 1
  30   18   19 ar
  31   18   21 1
  32   19   20 ar
  33   19   36 1
  34   20   37 1
  35   21   22 ar
  36   21   26 ar
  37   22   23 ar
  38   22   38 1
  39   23   24 ar
  40   23   39 1
  41   24   25 ar
  42   24   40 1
  43   25   26 ar
  44   25   41 1
  45   26   42 1

#	End of record

