#	Name: ASD01150921
#	Creating user name:	WinNT
#	Creation time:	15. 06. 2019 19:05

#	Modifying user name:	WinNT
#	Modification time:	15. 06. 2019 19:05

#	Program:	/corina/corina34_cracker 3.40 0067  02.08.2006

@<TRIPOS>MOLECULE
ASD01150921
  50   52    0    0    0
SMALL
NO_CHARGES


@<TRIPOS>ATOM
   1 C1            -0.0180     1.4739     0.0101 C.ar    
   2 C2             0.0021    -0.0041     0.0020 C.2     
   3 N3            -1.1558    -0.6938     0.0094 N.am    
   4 O4             1.0628    -0.5974    -0.0113 O.2     
   5 C5            -1.1370    -2.0836     0.0017 C.2     
   6 N6            -0.0478    -2.8559    -0.0124 N.2     
   7 C7            -0.3959    -4.1265    -0.0152 C.2     
   8 N8            -1.7505    -4.2220    -0.0028 N.pl3   
   9 C9            -2.2479    -2.9178     0.0135 C.2     
  10 C10           -3.6019    -2.5267     0.0301 C.2     
  11 O11           -4.5752    -3.4630     0.0314 O.3     
  12 O12           -3.8942    -1.3445     0.0433 O.2     
  13 C13           -5.9254    -2.9951     0.0487 C.3     
  14 C14           -6.8796    -4.1911     0.0475 C.3     
  15 S15            0.7214    -5.4889    -0.0330 S.3     
  16 C16            2.2989    -4.6016    -0.0433 C.3     
  17 C17           -2.5386    -5.4569    -0.0021 C.3     
  18 C18           -2.7958    -5.8878     1.4189 C.ar    
  19 C19           -3.9229    -5.4414     2.0833 C.ar    
  20 C20           -4.1588    -5.8366     3.3868 C.ar    
  21 C21           -3.2679    -6.6785     4.0257 C.ar    
  22 C22           -2.1413    -7.1256     3.3611 C.ar    
  23 C23           -1.9076    -6.7339     2.0562 C.ar    
  24 C24            1.1780     2.1884     0.0026 C.ar    
  25 C25            1.1500     3.5820     0.0098 C.ar    
  26 C26           -0.0756     4.2526     0.0246 C.ar    
  27 C27           -1.2572     3.5379     0.0326 C.ar    
  28 C28           -1.2365     2.1576     0.0196 C.ar    
  29 C29            2.3744     4.3245     0.0026 C.1     
  30 N30            3.3457     4.9136    -0.0031 N.1     
  31 H31           -2.0023    -0.2203     0.0200 H       
  32 H32           -6.0917    -2.3985     0.9456 H       
  33 H33           -6.1091    -2.3829    -0.8342 H       
  34 H34           -6.6959    -4.8034     0.9304 H       
  35 H35           -7.9094    -3.8343     0.0606 H       
  36 H36           -6.7132    -4.7878    -0.8495 H       
  37 H37            2.3722    -3.9802     0.8493 H       
  38 H38            3.1193    -5.3191    -0.0549 H       
  39 H39            2.3552    -3.9709    -0.9306 H       
  40 H40           -3.4890    -5.2818    -0.5063 H       
  41 H41           -1.9886    -6.2393    -0.5250 H       
  42 H42           -4.6190    -4.7836     1.5841 H       
  43 H43           -5.0390    -5.4873     3.9060 H       
  44 H44           -3.4518    -6.9867     5.0444 H       
  45 H45           -1.4451    -7.7831     3.8604 H       
  46 H46           -1.0274    -7.0832     1.5369 H       
  47 H47            2.1226     1.6649    -0.0085 H       
  48 H48           -0.0990     5.3324     0.0303 H       
  49 H49           -2.2018     4.0612     0.0447 H       
  50 H50           -2.1643     1.6048     0.0259 H       
@<TRIPOS>BOND
   1    1    2 1
   2    1   24 ar
   3    1   28 ar
   4    2    3 am
   5    2    4 2
   6    3    5 1
   7    3   31 1
   8    5    6 1
   9    5    9 2
  10    6    7 2
  11    7    8 1
  12    7   15 1
  13    8    9 1
  14    8   17 1
  15    9   10 1
  16   10   11 1
  17   10   12 2
  18   11   13 1
  19   13   14 1
  20   13   32 1
  21   13   33 1
  22   14   34 1
  23   14   35 1
  24   14   36 1
  25   15   16 1
  26   16   37 1
  27   16   38 1
  28   16   39 1
  29   17   18 1
  30   17   40 1
  31   17   41 1
  32   18   19 ar
  33   18   23 ar
  34   19   20 ar
  35   19   42 1
  36   20   21 ar
  37   20   43 1
  38   21   22 ar
  39   21   44 1
  40   22   23 ar
  41   22   45 1
  42   23   46 1
  43   24   25 ar
  44   24   47 1
  45   25   26 ar
  46   25   29 1
  47   26   27 ar
  48   26   48 1
  49   27   28 ar
  50   27   49 1
  51   28   50 1
  52   29   30 3

#	End of record

