#	Name: ASD01900203
#	Creating user name:	WinNT
#	Creation time:	15. 06. 2019 19:51

#	Modifying user name:	WinNT
#	Modification time:	15. 06. 2019 19:51

#	Program:	/corina/corina34_cracker 3.40 0067  02.08.2006

@<TRIPOS>MOLECULE
ASD01900203
  36   39    0    0    0
SMALL
NO_CHARGES


@<TRIPOS>ATOM
   1 N1            -0.0167     1.3836     0.0096 N.pl3   
   2 S2            -1.3891    -0.9986     0.0100 S.3     
   3 C3             0.0021    -0.0041     0.0020 C.2     
   4 N4             1.0772    -0.7293    -0.0126 N.2     
   5 C5             0.9155    -2.0401    -0.0338 C.2     
   6 C6             1.9532    -3.1102    -0.1944 C.2     
   7 C7             1.7057    -4.1899    -1.0676 C.2     
   8 C8             0.4989    -4.2612    -1.9523 C.3     
   9 C9            -0.7818    -4.6370    -1.1871 C.3     
  10 C10           -0.7998    -3.8666     0.1431 C.3     
  11 C11           -0.3806    -2.4355     0.0244 C.2     
  12 N12            2.7123    -5.0086    -0.9693 N.2     
  13 N13            3.6485    -4.4574    -0.0797 N.pl3   
  14 C14            3.1578    -3.2778     0.3755 C.2     
  15 C15            1.1740     2.0928     0.0021 C.ar    
  16 N16            1.1372     3.4171     0.0096 N.ar    
  17 C17            2.2597     4.1251     0.0031 C.ar    
  18 C18            3.4829     3.4555    -0.0117 C.ar    
  19 C19            3.4782     2.0735    -0.0191 C.ar    
  20 N20            2.3206     1.4298    -0.0069 N.ar    
  21 O21            2.2179     5.4795     0.0103 O.3     
  22 C22            0.9253     6.0886     0.0250 C.3     
  23 H23           -0.8633     1.8571     0.0162 H       
  24 H24            0.3529    -3.2906    -2.4263 H       
  25 H25            0.6757    -5.0057    -2.7285 H       
  26 H26           -1.6554    -4.3652    -1.7795 H       
  27 H27           -0.7890    -5.7089    -0.9895 H       
  28 H28           -1.8106    -3.8996     0.5497 H       
  29 H29           -0.1311    -4.3673     0.8433 H       
  30 H30            4.4992    -4.8525     0.1672 H       
  31 H31            3.6430    -2.6024     1.0645 H       
  32 H32            4.4129     4.0046    -0.0177 H       
  33 H33            4.4081     1.5244    -0.0310 H       
  34 H34            0.3696     5.7831    -0.8616 H       
  35 H35            0.3856     5.7741     0.9182 H       
  36 H36            1.0346     7.1731     0.0295 H       
@<TRIPOS>BOND
   1    1    3 1
   2    1   15 1
   3    1   23 1
   4    2    3 1
   5    2   11 1
   6    3    4 2
   7    4    5 1
   8    5    6 1
   9    5   11 2
  10    6    7 1
  11    6   14 2
  12    7    8 1
  13    7   12 2
  14    8    9 1
  15    8   24 1
  16    8   25 1
  17    9   10 1
  18    9   26 1
  19    9   27 1
  20   10   11 1
  21   10   28 1
  22   10   29 1
  23   12   13 1
  24   13   14 1
  25   13   30 1
  26   14   31 1
  27   15   16 ar
  28   15   20 ar
  29   16   17 ar
  30   17   18 ar
  31   17   21 1
  32   18   19 ar
  33   18   32 1
  34   19   20 ar
  35   19   33 1
  36   21   22 1
  37   22   34 1
  38   22   35 1
  39   22   36 1

#	End of record

