#	Name: ASD03430373
#	Creating user name:	WinNT
#	Creation time:	15. 06. 2019 20:41

#	Modifying user name:	WinNT
#	Modification time:	15. 06. 2019 20:41

#	Program:	/corina/corina34_cracker 3.40 0067  02.08.2006

@<TRIPOS>MOLECULE
ASD03430373
  42   45    0    0    0
SMALL
NO_CHARGES


@<TRIPOS>ATOM
   1 N1            -0.0161     1.3395     0.0094 N.am    
   2 C2             0.0021    -0.0041     0.0020 C.2     
   3 C3             1.4548    -0.4298    -0.0141 C.3     
   4 C4             2.2197     0.8737    -0.0144 C.ar    
   5 C5             3.5641     1.1705    -0.0263 C.ar    
   6 C6             3.9795     2.4906    -0.0239 C.ar    
   7 C7             3.0415     3.5068    -0.0095 C.ar    
   8 C8             1.6940     3.2122     0.0024 C.ar    
   9 C9             1.2680     1.8853     0.0001 C.ar    
  10 O10           -0.9637    -0.7377     0.0076 O.2     
  11 C11           -1.2434     2.1395     0.0197 C.3     
  12 O12           -2.4671     1.6329     2.1849 O.3     
  13 C13           -1.6570     2.4066     1.4440 C.2     
  14 C14           -1.2770     3.4601     2.1891 C.2     
  15 C15           -1.8943     3.3122     3.4524 C.2     
  16 C16           -2.6146     2.1772     3.4038 C.2     
  17 C17           -3.4460     1.6122     4.5265 C.3     
  18 F18           -4.7477     2.1181     4.4431 F       
  19 F19           -3.4804     0.2173     4.4251 F       
  20 F20           -2.8818     1.9768     5.7537 F       
  21 O21            1.7660    -1.1927     1.1535 O.3     
  22 C22            1.7593    -1.2210    -1.2601 C.ar    
  23 C23            1.5530    -0.6545    -2.5099 C.ar    
  24 C24            1.8340    -1.3849    -3.6549 C.ar    
  25 C25            2.3190    -2.6753    -3.5485 C.ar    
  26 C26            2.5232    -3.2375    -2.3011 C.ar    
  27 C27            2.2493    -2.5085    -1.1586 C.ar    
  28 O28            1.0758     0.6138    -2.6117 O.3     
  29 Br29           2.7026    -3.6723    -5.1088 Br      
  30 H30            4.2935     0.3741    -0.0372 H       
  31 H31            5.0333     2.7266    -0.0329 H       
  32 H32            3.3659     4.5370    -0.0072 H       
  33 H33            0.9677     4.0114     0.0136 H       
  34 H34           -1.0644     3.0860    -0.4902 H       
  35 H35           -2.0364     1.5949    -0.4929 H       
  36 H36           -0.6250     4.2642     1.8815 H       
  37 H37           -1.8045     3.9819     4.2950 H       
  38 H38            1.2584    -2.0117     1.2350 H       
  39 H39            1.6739    -0.9463    -4.6287 H       
  40 H40            2.9017    -4.2457    -2.2196 H       
  41 H41            2.4142    -2.9478    -0.1858 H       
  42 H42            1.7644     1.2923    -2.6366 H       
@<TRIPOS>BOND
   1    1    2 am
   2    1    9 1
   3    1   11 1
   4    2    3 1
   5    2   10 2
   6    3    4 1
   7    3   21 1
   8    3   22 1
   9    4    5 ar
  10    4    9 ar
  11    5    6 ar
  12    5   30 1
  13    6    7 ar
  14    6   31 1
  15    7    8 ar
  16    7   32 1
  17    8    9 ar
  18    8   33 1
  19   11   13 1
  20   11   34 1
  21   11   35 1
  22   12   13 1
  23   12   16 1
  24   13   14 2
  25   14   15 1
  26   14   36 1
  27   15   16 2
  28   15   37 1
  29   16   17 1
  30   17   18 1
  31   17   19 1
  32   17   20 1
  33   21   38 1
  34   22   23 ar
  35   22   27 ar
  36   23   24 ar
  37   23   28 1
  38   24   25 ar
  39   24   39 1
  40   25   26 ar
  41   25   29 1
  42   26   27 ar
  43   26   40 1
  44   27   41 1
  45   28   42 1

#	End of record

