#	Name: ASD01200532
#	Creating user name:	WinNT
#	Creation time:	15. 06. 2019 19:09

#	Modifying user name:	WinNT
#	Modification time:	15. 06. 2019 19:09

#	Program:	/corina/corina34_cracker 3.40 0067  02.08.2006

@<TRIPOS>MOLECULE
ASD01200532
  34   36    0    0    0
SMALL
NO_CHARGES


@<TRIPOS>ATOM
   1 N1             2.2209     1.3444     0.5237 N.ar    
   2 C2             2.2334     0.0266     0.5300 C.ar    
   3 C3             1.1989    -0.6944    -0.0529 C.ar    
   4 C4             0.1447    -0.0040    -0.6459 C.ar    
   5 C5             0.1730     1.3810    -0.6292 C.ar    
   6 C6             1.2375     2.0274    -0.0295 C.ar    
   7 N7             1.2159    -2.0926    -0.0446 N.am    
   8 C8             0.0619    -2.7799     0.0658 C.2     
   9 O9            -0.9829    -2.1875     0.2575 O.2     
  10 O10            1.1501    -5.0164    -0.2559 O.3     
  11 C11            0.0659    -4.2484    -0.0458 C.2     
  12 C12           -1.0309    -5.0578     0.0473 C.2     
  13 C13           -0.5833    -6.3740    -0.1146 C.2     
  14 C14            0.7805    -6.3098    -0.3013 C.2     
  15 C15            1.6770    -7.4562    -0.5135 C.2     
  16 C16            3.1069    -7.2308    -0.8115 C.ar    
  17 C17            3.9374    -8.3100    -1.1225 C.ar    
  18 C18            5.2708    -8.0924    -1.3995 C.ar    
  19 C19            5.7866    -6.8085    -1.3693 C.ar    
  20 C20            4.9696    -5.7347    -1.0618 C.ar    
  21 C21            3.6328    -5.9371    -0.7889 C.ar    
  22 O22            1.2416    -8.5899    -0.4438 O.2     
  23 H23            3.0564    -0.4980     0.9925 H       
  24 H24           -0.6744    -0.5352    -1.1078 H       
  25 H25           -0.6274     1.9491    -1.0798 H       
  26 H26            1.2642     3.1070    -0.0134 H       
  27 H27            2.0583    -2.5678    -0.1183 H       
  28 H28           -2.0501    -4.7419     0.2145 H       
  29 H29           -1.1897    -7.2676    -0.0962 H       
  30 H30            3.5363    -9.3125    -1.1458 H       
  31 H31            5.9141    -8.9259    -1.6402 H       
  32 H32            6.8317    -6.6439    -1.5863 H       
  33 H33            5.3786    -4.7354    -1.0400 H       
  34 H34            2.9952    -5.0976    -0.5538 H       
@<TRIPOS>BOND
   1    1    2 ar
   2    1    6 ar
   3    2    3 ar
   4    2   23 1
   5    3    4 ar
   6    3    7 1
   7    4    5 ar
   8    4   24 1
   9    5    6 ar
  10    5   25 1
  11    6   26 1
  12    7    8 am
  13    7   27 1
  14    8    9 2
  15    8   11 1
  16   10   11 1
  17   10   14 1
  18   11   12 2
  19   12   13 1
  20   12   28 1
  21   13   14 2
  22   13   29 1
  23   14   15 1
  24   15   16 1
  25   15   22 2
  26   16   17 ar
  27   16   21 ar
  28   17   18 ar
  29   17   30 1
  30   18   19 ar
  31   18   31 1
  32   19   20 ar
  33   19   32 1
  34   20   21 ar
  35   20   33 1
  36   21   34 1

#	End of record

