#	Name: ASD01882413
#	Creating user name:	WinNT
#	Creation time:	15. 06. 2019 19:44

#	Modifying user name:	WinNT
#	Modification time:	15. 06. 2019 19:44

#	Program:	/corina/corina34_cracker 3.40 0067  02.08.2006

@<TRIPOS>MOLECULE
ASD01882413
  51   55    0    0    0
SMALL
NO_CHARGES


@<TRIPOS>ATOM
   1 C1            -0.0332     1.3459    -0.1957 C.2     
   2 C2             0.0381    -0.0544    -0.1008 C.2     
   3 C3             1.2560    -0.6487     0.0891 C.2     
   4 C4             2.4148     0.1524     0.1860 C.2     
   5 C5             2.3233     1.4933     0.0922 C.2     
   6 N6             1.1137     2.0956    -0.0971 N.pl3   
   7 N7            -0.5759     3.3989    -0.3924 N.2     
   8 N8            -1.0320     2.1959    -0.3790 N.2     
   9 C9             0.7205     3.3953    -0.2264 C.2     
  10 C10           -1.2110    -0.8909    -0.2063 C.3     
  11 F11           -1.7119    -1.1448     1.0750 F       
  12 F12           -2.1717    -0.2021    -0.9545 F       
  13 F13           -0.9090    -2.1024    -0.8375 F       
  14 N14            1.3519    -2.0336     0.1866 N.pl3   
  15 C15            2.0582    -2.8155    -0.8395 C.3     
  16 C16            3.0685    -3.7330    -0.1426 C.3     
  17 N17            2.3773    -4.5303     0.8794 N.3     
  18 C18            1.8113    -3.6741     1.9304 C.3     
  19 C19            0.7548    -2.7536     1.3216 C.3     
  20 C20            3.2315    -5.4959     1.4249 C.ar    
  21 C21            3.5120    -5.4882     2.7872 C.ar    
  22 C22            4.3556    -6.4435     3.3229 C.ar    
  23 C23            4.9206    -7.4069     2.5038 C.ar    
  24 C24            4.6421    -7.4156     1.1480 C.ar    
  25 C25            3.7952    -6.4659     0.6084 C.ar    
  26 F26            5.7451    -8.3394     3.0289 F       
  27 F27            2.9611    -4.5480     3.5859 F       
  28 C28            1.6173     4.6058    -0.1872 C.3     
  29 C29            2.1013     4.9280    -1.6024 C.3     
  30 C30            2.9330     6.1981    -1.7925 C.3     
  31 C31            3.6031     4.8252    -1.8759 C.3     
  32 H32            3.3783    -0.3117     0.3362 H       
  33 H33            3.2155     2.0970     0.1679 H       
  34 H34            1.3420    -3.4174    -1.3987 H       
  35 H35            2.5824    -2.1415    -1.5171 H       
  36 H36            3.5228    -4.3981    -0.8770 H       
  37 H37            3.8431    -3.1289     0.3297 H       
  38 H38            1.3538    -4.2965     2.6994 H       
  39 H39            2.6034    -3.0708     2.3739 H       
  40 H40            0.4175    -2.0387     2.0722 H       
  41 H41           -0.0892    -3.3494     0.9741 H       
  42 H42            4.5745    -6.4383     4.3805 H       
  43 H43            5.0840    -8.1680     0.5115 H       
  44 H44            3.5756    -6.4763    -0.4489 H       
  45 H45            1.0626     5.4562     0.2096 H       
  46 H46            2.4757     4.4015     0.4527 H       
  47 H47            1.4224     4.6459    -2.4071 H       
  48 H48            2.8015     6.7513    -2.7224 H       
  49 H49            3.1353     6.8041    -0.9094 H       
  50 H50            4.2463     4.5280    -1.0476 H       
  51 H51            3.9125     4.4751    -2.8607 H       
@<TRIPOS>BOND
   1    1    2 1
   2    1    6 1
   3    1    8 2
   4    2    3 2
   5    2   10 1
   6    3    4 1
   7    3   14 1
   8    4    5 2
   9    4   32 1
  10    5    6 1
  11    5   33 1
  12    6    9 1
  13    7    8 1
  14    7    9 2
  15    9   28 1
  16   10   11 1
  17   10   12 1
  18   10   13 1
  19   14   15 1
  20   14   19 1
  21   15   16 1
  22   15   34 1
  23   15   35 1
  24   16   17 1
  25   16   36 1
  26   16   37 1
  27   17   18 1
  28   17   20 1
  29   18   19 1
  30   18   38 1
  31   18   39 1
  32   19   40 1
  33   19   41 1
  34   20   21 ar
  35   20   25 ar
  36   21   22 ar
  37   21   27 1
  38   22   23 ar
  39   22   42 1
  40   23   24 ar
  41   23   26 1
  42   24   25 ar
  43   24   43 1
  44   25   44 1
  45   28   29 1
  46   28   45 1
  47   28   46 1
  48   29   30 1
  49   29   31 1
  50   29   47 1
  51   30   31 1
  52   30   48 1
  53   30   49 1
  54   31   50 1
  55   31   51 1

#	End of record

