#	Name: ASD01720009
#	Creating user name:	WinNT
#	Creation time:	15. 06. 2019 19:23

#	Modifying user name:	WinNT
#	Modification time:	15. 06. 2019 19:23

#	Program:	/corina/corina34_cracker 3.40 0067  02.08.2006

@<TRIPOS>MOLECULE
ASD01720009
  65   69    0    0    0
SMALL
NO_CHARGES


@<TRIPOS>ATOM
   1 C1             0.4538     0.8838     0.0542 C.3     
   2 N2             0.1117    -0.5320     0.2888 N.am    
   3 C3             0.8601    -1.5620    -0.4469 C.3     
   4 C4             2.3327    -1.5221    -0.0189 C.3     
   5 C5             1.9561     0.9806     0.0440 C.2     
   6 C6             2.7792     2.1179     0.0668 C.2     
   7 C7             2.7911    -0.0870     0.0084 C.2     
   8 N8             4.0463     0.3938     0.0041 N.pl3   
   9 N9             4.0272     1.6814     0.0404 N.2     
  10 C10            5.2593    -0.4268    -0.0346 C.3     
  11 C11            6.4696     0.4585     0.1156 C.ar    
  12 C12            2.3375     3.5264     0.1108 C.2     
  13 N13            3.2496     4.5184     0.1286 N.am    
  14 O14            1.1510     3.7910     0.1310 O.2     
  15 C15            2.8360     5.8460     0.2777 C.ar    
  16 C16           -0.8621    -0.8729     1.1560 C.2     
  17 C17           -1.5881     0.1690     1.8901 C.2     
  18 O18           -1.1391    -2.0450     1.3300 O.2     
  19 C19           -2.2720     0.0043     3.0758 C.2     
  20 C20           -2.8094     1.2495     3.4166 C.2     
  21 C21           -2.4523     2.1335     2.4545 C.2     
  22 N22           -1.7056     1.4907     1.5238 N.pl3   
  23 C23            2.0176     8.4727     0.5726 C.ar    
  24 C24            1.3166     7.4573     1.1975 C.ar    
  25 C25            1.7224     6.1454     1.0524 C.ar    
  26 C26            3.5409     6.8685    -0.3437 C.ar    
  27 C27            3.1297     8.1787    -0.1945 C.ar    
  28 C28            3.8901     9.2882    -0.8740 C.3     
  29 C29            4.9039     9.8851     0.1042 C.3     
  30 O30            2.9770    10.3045    -1.2928 O.3     
  31 C31            3.1792    -2.3120    -1.0191 C.3     
  32 C32            7.0146     1.0773    -0.9940 C.ar    
  33 C33            7.0307     0.6555     1.3636 C.ar    
  34 C34            8.1403     1.4675     1.5026 C.ar    
  35 C35            8.6904     2.0833     0.3911 C.ar    
  36 C36            8.1245     1.8893    -0.8576 C.ar    
  37 F37            9.7749     2.8776     0.5259 F       
  38 H38            0.0541     1.2084    -0.9065 H       
  39 H39            0.0472     1.5018     0.8548 H       
  40 H40            0.4428    -2.5439    -0.2239 H       
  41 H41            0.7870    -1.3697    -1.5174 H       
  42 H42            2.4363    -1.9577     0.9749 H       
  43 H43            5.2348    -1.1500     0.7805 H       
  44 H44            5.3109    -0.9543    -0.9870 H       
  45 H45            4.1930     4.3116     0.0381 H       
  46 H46           -2.3739    -0.9136     3.6358 H       
  47 H47           -3.4037     1.4676     4.2916 H       
  48 H48           -2.7160     3.1806     2.4344 H       
  49 H49           -1.3228     1.8936     0.7288 H       
  50 H50            1.6979     9.4979     0.6874 H       
  51 H51            0.4484     7.6902     1.7960 H       
  52 H52            1.1745     5.3529     1.5403 H       
  53 H53            4.4099     6.6395    -0.9427 H       
  54 H54            4.4144     8.8903    -1.7428 H       
  55 H55            5.6004     9.1100     0.4237 H       
  56 H56            5.4539    10.6877    -0.3872 H       
  57 H57            4.3796    10.2831     0.9731 H       
  58 H58            2.4745    10.7041    -0.5697 H       
  59 H59            3.1763    -1.8002    -1.9815 H       
  60 H60            4.2022    -2.3866    -0.6502 H       
  61 H61            2.7620    -3.3120    -1.1381 H       
  62 H62            6.5730     0.9259    -1.9679 H       
  63 H63            6.6014     0.1751     2.2304 H       
  64 H64            8.5780     1.6219     2.4777 H       
  65 H65            8.5503     2.3724    -1.7246 H       
@<TRIPOS>BOND
   1    1    2 1
   2    1    5 1
   3    1   38 1
   4    1   39 1
   5    2    3 1
   6    2   16 am
   7    3    4 1
   8    3   40 1
   9    3   41 1
  10    4    7 1
  11    4   31 1
  12    4   42 1
  13    5    7 2
  14    5    6 1
  15    6    9 2
  16    6   12 1
  17    7    8 1
  18    8    9 1
  19    8   10 1
  20   10   11 1
  21   10   43 1
  22   10   44 1
  23   11   33 ar
  24   11   32 ar
  25   12   13 am
  26   12   14 2
  27   13   15 1
  28   13   45 1
  29   15   26 ar
  30   15   25 ar
  31   16   17 1
  32   16   18 2
  33   17   19 2
  34   17   22 1
  35   19   20 1
  36   19   46 1
  37   20   21 2
  38   20   47 1
  39   21   22 1
  40   21   48 1
  41   22   49 1
  42   23   24 ar
  43   23   27 ar
  44   23   50 1
  45   24   25 ar
  46   24   51 1
  47   25   52 1
  48   26   27 ar
  49   26   53 1
  50   27   28 1
  51   28   29 1
  52   28   30 1
  53   28   54 1
  54   29   55 1
  55   29   56 1
  56   29   57 1
  57   30   58 1
  58   31   59 1
  59   31   60 1
  60   31   61 1
  61   32   36 ar
  62   32   62 1
  63   33   34 ar
  64   33   63 1
  65   34   35 ar
  66   34   64 1
  67   35   36 ar
  68   35   37 1
  69   36   65 1

#	End of record

