#	Name: ASD02038646
#	Creating user name:	WinNT
#	Creation time:	15. 06. 2019 20:17

#	Modifying user name:	WinNT
#	Modification time:	15. 06. 2019 20:17

#	Program:	/corina/corina34_cracker 3.40 0067  02.08.2006

@<TRIPOS>MOLECULE
ASD02038646
  58   60    0    0    0
SMALL
NO_CHARGES


@<TRIPOS>ATOM
   1 C1             2.2976    -2.7162    -3.8553 C.ar    
   2 C2             1.5943    -2.7936    -2.6622 C.ar    
   3 O3             0.2831    -3.1538    -2.6683 O.3     
   4 C4            -0.3793    -3.2132    -1.4035 C.3     
   5 C5            -1.8361    -3.6327    -1.6100 C.3     
   6 C6            -2.5114    -3.8172    -0.2495 C.3     
   7 N7            -3.8886    -4.2887    -0.4464 N.3     
   8 C8            -3.9109    -5.7110    -0.8113 C.3     
   9 C9            -5.3434    -6.1299    -1.1495 C.3     
  10 C10            3.6294    -2.3509    -3.8497 C.ar    
  11 C11            4.2643    -2.0611    -2.6496 C.ar    
  12 C12            3.5599    -2.1389    -1.4558 C.ar    
  13 C13            2.2282    -2.5043    -1.4627 C.ar    
  14 N14            5.6160    -1.6908    -2.6432 N.am    
  15 O15           -2.5229    -2.6209    -2.3493 O.3     
  16 C16           -4.7077    -4.0334     0.7453 C.3     
  17 C17           -6.2428    -5.8811     0.0645 C.3     
  18 C18           -6.1641    -4.4023     0.4536 C.3     
  19 C19           -7.6877    -6.2410    -0.2873 C.3     
  20 C20           -8.5898    -5.8809     0.8649 C.ar    
  21 C21           -9.1622    -4.6242     0.9280 C.ar    
  22 O22           -5.8016    -6.6870     1.1590 O.3     
  23 C23            6.1266    -0.9862    -3.6724 C.2     
  24 O24            5.3961    -0.5913    -4.5605 O.2     
  25 N25            7.4469    -0.7193    -3.7172 N.am    
  26 C26           -9.9897    -4.2939     1.9849 C.ar    
  27 C27          -10.2452    -5.2205     2.9784 C.ar    
  28 C28           -9.6736    -6.4775     2.9148 C.ar    
  29 C29           -8.8495    -6.8092     1.8556 C.ar    
  30 H30            1.8047    -2.9459    -4.7884 H       
  31 H31            0.1214    -3.9410    -0.7650 H       
  32 H32           -0.3474    -2.2318    -0.9303 H       
  33 H33           -1.8690    -4.5718    -2.1623 H       
  34 H34           -1.9563    -4.5508     0.3351 H       
  35 H35           -2.5256    -2.8652     0.2811 H       
  36 H36           -3.2706    -5.8736    -1.6783 H       
  37 H37           -3.5464    -6.3064     0.0259 H       
  38 H38           -5.7037    -5.5445    -1.9954 H       
  39 H39           -5.3620    -7.1894    -1.4051 H       
  40 H40            4.1769    -2.2910    -4.7787 H       
  41 H41            4.0532    -1.9132    -0.5219 H       
  42 H42            1.6800    -2.5644    -0.5342 H       
  43 H43            6.1841    -1.9416    -1.8980 H       
  44 H44           -2.5336    -1.7563    -1.9165 H       
  45 H45           -4.3395    -4.6367     1.5752 H       
  46 H46           -4.6463    -2.9775     1.0088 H       
  47 H47           -6.7690    -4.2273     1.3433 H       
  48 H48           -6.5372    -3.7896    -0.3671 H       
  49 H49           -7.9940    -5.6879    -1.1752 H       
  50 H50           -7.7582    -7.3109    -0.4834 H       
  51 H51           -8.9626    -3.9003     0.1518 H       
  52 H52           -6.3274    -6.5799     1.9634 H       
  53 H53            8.0297    -1.0344    -3.0086 H       
  54 H54            7.8144    -0.2122    -4.4579 H       
  55 H55          -10.4363    -3.3118     2.0346 H       
  56 H56          -10.8912    -4.9622     3.8045 H       
  57 H57           -9.8729    -7.2013     3.6912 H       
  58 H58           -8.4029    -7.7913     1.8059 H       
@<TRIPOS>BOND
   1    1    2 ar
   2    1   10 ar
   3    1   30 1
   4    2    3 1
   5    2   13 ar
   6    3    4 1
   7    4    5 1
   8    4   31 1
   9    4   32 1
  10    5    6 1
  11    5   15 1
  12    5   33 1
  13    6    7 1
  14    6   34 1
  15    6   35 1
  16    7    8 1
  17    7   16 1
  18    8    9 1
  19    8   36 1
  20    8   37 1
  21    9   17 1
  22    9   38 1
  23    9   39 1
  24   10   11 ar
  25   10   40 1
  26   11   12 ar
  27   11   14 1
  28   12   13 ar
  29   12   41 1
  30   13   42 1
  31   14   23 am
  32   14   43 1
  33   15   44 1
  34   16   18 1
  35   16   45 1
  36   16   46 1
  37   17   18 1
  38   17   19 1
  39   17   22 1
  40   18   47 1
  41   18   48 1
  42   19   20 1
  43   19   49 1
  44   19   50 1
  45   20   21 ar
  46   20   29 ar
  47   21   26 ar
  48   21   51 1
  49   22   52 1
  50   23   24 2
  51   23   25 am
  52   25   53 1
  53   25   54 1
  54   26   27 ar
  55   26   55 1
  56   27   28 ar
  57   27   56 1
  58   28   29 ar
  59   28   57 1
  60   29   58 1

#	End of record

