#	Name: ASD01915584
#	Creating user name:	WinNT
#	Creation time:	15. 06. 2019 20:05

#	Modifying user name:	WinNT
#	Modification time:	15. 06. 2019 20:05

#	Program:	/corina/corina34_cracker 3.40 0067  02.08.2006

@<TRIPOS>MOLECULE
ASD01915584
  51   54    0    0    0
SMALL
NO_CHARGES


@<TRIPOS>ATOM
   1 C1            -0.0043     1.4633     0.2185 C.2     
   2 N2             0.0617     0.1103    -0.0288 N.pl3   
   3 C3            -1.1507    -0.6738    -0.2934 C.3     
   4 C4            -2.3298    -0.0464     0.4483 C.3     
   5 N5            -2.4043     1.3988     0.2637 N.am    
   6 C6            -1.2917     2.1722     0.2688 C.2     
   7 C7             1.2784     1.9004     0.3955 C.2     
   8 C8             2.0746     0.7560     0.2534 C.2     
   9 N9             1.2815    -0.2611     0.0092 N.2     
  10 C10            3.5767     0.7024     0.3623 C.3     
  11 O11            4.0814     2.0109     0.6364 O.3     
  12 C12            5.4283     2.1381     0.7654 C.ar    
  13 O13           -1.3544     3.3861     0.3128 O.2     
  14 C14            5.9866     3.3799     1.0318 C.ar    
  15 C15            6.2468     1.0255     0.6366 C.ar    
  16 C16            7.6156     1.1574     0.7681 C.ar    
  17 C17            8.1700     2.3972     1.0279 C.ar    
  18 C18            7.3559     3.5066     1.1624 C.ar    
  19 C19           -3.6482     1.9976     0.0778 C.ar    
  20 C20           -4.8053     1.2637     0.3053 C.ar    
  21 C21           -6.0377     1.8683     0.1176 C.ar    
  22 C22           -6.0709     3.1912    -0.2927 C.ar    
  23 C23           -4.8764     3.8669    -0.5021 C.ar    
  24 N24           -3.7155     3.2628    -0.3089 N.ar    
  25 O25           -4.8999     5.1624    -0.9044 O.3     
  26 C26           -3.6381     5.8031    -1.1029 C.3     
  27 C27           -3.8648     7.2481    -1.5517 C.3     
  28 O28           -4.4989     7.9794    -0.5004 O.3     
  29 C29           -4.7572     9.3484    -0.8185 C.3     
  30 H30           -1.3549    -0.6778    -1.3641 H       
  31 H31           -1.0053    -1.6968     0.0536 H       
  32 H32           -3.2539    -0.4960     0.0850 H       
  33 H33           -2.2308    -0.2608     1.5125 H       
  34 H34            1.6069     2.9087     0.6000 H       
  35 H35            3.8585     0.0276     1.1706 H       
  36 H36            3.9963     0.3404    -0.5763 H       
  37 H37            5.3511     4.2469     1.1365 H       
  38 H38            5.8142     0.0568     0.4340 H       
  39 H39            8.2532     0.2915     0.6683 H       
  40 H40            9.2404     2.4983     1.1304 H       
  41 H41            7.7914     4.4740     1.3650 H       
  42 H42           -4.7451     0.2336     0.6244 H       
  43 H43           -6.9527     1.3201     0.2872 H       
  44 H44           -7.0155     3.6911    -0.4482 H       
  45 H45           -3.0764     5.7966    -0.1688 H       
  46 H46           -3.0758     5.2687    -1.8687 H       
  47 H47           -2.9062     7.7097    -1.7885 H       
  48 H48           -4.5013     7.2581    -2.4365 H       
  49 H49           -3.8170     9.8536    -1.0401 H       
  50 H50           -5.4122     9.4020    -1.6881 H       
  51 H51           -5.2393     9.8339     0.0300 H       
@<TRIPOS>BOND
   1    1    2 1
   2    1    7 2
   3    1    6 1
   4    2    3 1
   5    2    9 1
   6    3    4 1
   7    3   30 1
   8    3   31 1
   9    4    5 1
  10    4   32 1
  11    4   33 1
  12    5    6 am
  13    5   19 1
  14    6   13 2
  15    7    8 1
  16    7   34 1
  17    8    9 2
  18    8   10 1
  19   10   11 1
  20   10   35 1
  21   10   36 1
  22   11   12 1
  23   12   14 ar
  24   12   15 ar
  25   14   18 ar
  26   14   37 1
  27   15   16 ar
  28   15   38 1
  29   16   17 ar
  30   16   39 1
  31   17   18 ar
  32   17   40 1
  33   18   41 1
  34   19   20 ar
  35   19   24 ar
  36   20   21 ar
  37   20   42 1
  38   21   22 ar
  39   21   43 1
  40   22   23 ar
  41   22   44 1
  42   23   24 ar
  43   23   25 1
  44   25   26 1
  45   26   27 1
  46   26   45 1
  47   26   46 1
  48   27   28 1
  49   27   47 1
  50   27   48 1
  51   28   29 1
  52   29   49 1
  53   29   50 1
  54   29   51 1

#	End of record

