#	Name: ASD01915761
#	Creating user name:	WinNT
#	Creation time:	15. 06. 2019 20:06

#	Modifying user name:	WinNT
#	Modification time:	15. 06. 2019 20:06

#	Program:	/corina/corina34_cracker 3.40 0067  02.08.2006

@<TRIPOS>MOLECULE
ASD01915761
  44   47    0    0    0
SMALL
NO_CHARGES


@<TRIPOS>ATOM
   1 C1            -0.0042     1.4683     0.2343 C.2     
   2 N2             0.0660     0.1188    -0.0301 N.pl3   
   3 C3            -1.1432    -0.6640    -0.3123 C.3     
   4 C4            -2.3281    -0.0486     0.4302 C.3     
   5 N5            -2.4044     1.3988     0.2638 N.am    
   6 C6            -1.2934     2.1741     0.2857 C.2     
   7 C7             1.2764     1.9056     0.4249 C.2     
   8 C8             2.0758     0.7646     0.2730 C.2     
   9 N9             1.2863    -0.2507     0.0107 N.2     
  10 C10            3.5773     0.7126     0.3901 C.3     
  11 O11            3.9403     0.4423     1.7456 O.3     
  12 C12            5.2680     0.3622     2.0245 C.ar    
  13 O13           -1.3588     3.3874     0.3446 O.2     
  14 C14            5.6914     0.1025     3.3199 C.ar    
  15 C15            6.2020     0.5344     1.0133 C.ar    
  16 C16            7.5510     0.4526     1.2995 C.ar    
  17 C17            7.9706     0.1993     2.5924 C.ar    
  18 C18            7.0415     0.0216     3.6009 C.ar    
  19 C19           -3.6541     2.0003     0.0771 C.ar    
  20 C20           -3.9668     2.5905    -1.1404 C.ar    
  21 C21            1.7303     3.3096     0.7310 C.3     
  22 C22           -4.5855     2.0028     1.1072 C.ar    
  23 C23           -5.8183     2.5965     0.9207 C.ar    
  24 C24           -6.1261     3.1891    -0.2924 C.ar    
  25 C25           -5.2009     3.1832    -1.3227 C.ar    
  26 F26           -7.3328     3.7694    -0.4728 F       
  27 H27           -1.3408    -0.6545    -1.3842 H       
  28 H28           -0.9980    -1.6912     0.0223 H       
  29 H29           -3.2490    -0.4952     0.0554 H       
  30 H30           -2.2352    -0.2765     1.4920 H       
  31 H31            3.9648    -0.0767    -0.2540 H       
  32 H32            3.9990     1.6703     0.0851 H       
  33 H33            4.9661    -0.0360     4.1080 H       
  34 H34            5.8748     0.7320     0.0032 H       
  35 H35            8.2786     0.5862     0.5126 H       
  36 H36            9.0257     0.1357     2.8141 H       
  37 H37            7.3717    -0.1758     4.6100 H       
  38 H38           -3.2454     2.5864    -1.9441 H       
  39 H39            1.7556     3.4560     1.8108 H       
  40 H40            2.7273     3.4670     0.3196 H       
  41 H41            1.0363     4.0214     0.2840 H       
  42 H42           -4.3459     1.5404     2.0534 H       
  43 H43           -6.5431     2.5984     1.7215 H       
  44 H44           -5.4429     3.6459    -2.2680 H       
@<TRIPOS>BOND
   1    1    2 1
   2    1    7 2
   3    1    6 1
   4    2    3 1
   5    2    9 1
   6    3    4 1
   7    3   27 1
   8    3   28 1
   9    4    5 1
  10    4   29 1
  11    4   30 1
  12    5    6 am
  13    5   19 1
  14    6   13 2
  15    7    8 1
  16    7   21 1
  17    8    9 2
  18    8   10 1
  19   10   11 1
  20   10   31 1
  21   10   32 1
  22   11   12 1
  23   12   14 ar
  24   12   15 ar
  25   14   18 ar
  26   14   33 1
  27   15   16 ar
  28   15   34 1
  29   16   17 ar
  30   16   35 1
  31   17   18 ar
  32   17   36 1
  33   18   37 1
  34   19   22 ar
  35   19   20 ar
  36   20   25 ar
  37   20   38 1
  38   21   39 1
  39   21   40 1
  40   21   41 1
  41   22   23 ar
  42   22   42 1
  43   23   24 ar
  44   23   43 1
  45   24   25 ar
  46   24   26 1
  47   25   44 1

#	End of record

