#	Name: ASD00431385
#	Creating user name:	WinNT
#	Creation time:	15. 06. 2019 18:35

#	Modifying user name:	WinNT
#	Modification time:	15. 06. 2019 18:35

#	Program:	/corina/corina34_cracker 3.40 0067  02.08.2006

@<TRIPOS>MOLECULE
ASD00431385
  43   45    0    0    0
SMALL
NO_CHARGES


@<TRIPOS>ATOM
   1 C1            -0.1387     1.7590     0.1774 C.3     
   2 C2            -0.1445     0.2292     0.1539 C.3     
   3 O3             2.0719     2.3608    -0.9326 O.3     
   4 N4             3.1659     2.7927    -0.6525 N.2     
   5 C5             3.2685     3.0365     0.6339 C.2     
   6 C6             2.0101     2.6836     1.2032 C.2     
   7 C7             1.2836     2.2564     0.1474 C.2     
   8 S8             4.5585     3.8847     3.0753 S.3     
   9 C9             6.1700     4.4224     2.8850 C.2     
  10 N10            6.5261     4.3478     1.6394 N.2     
  11 C11            5.6326     3.8957     0.7865 C.2     
  12 C12            4.4476     3.5677     1.3457 C.2     
  13 O13            6.9621     4.8633     3.8909 O.3     
  14 C14            8.2564     5.1618     3.6002 C.ar    
  15 C15            8.5509     6.2230     2.7565 C.ar    
  16 C16            9.8656     6.5264     2.4617 C.ar    
  17 C17           10.8915     5.7701     3.0090 C.ar    
  18 C18           10.5971     4.7087     3.8522 C.ar    
  19 C19            9.2826     4.4087     4.1517 C.ar    
  20 O20           12.1859     6.0689     2.7186 O.3     
  21 C21           12.4133     7.0838     1.7387 C.3     
  22 C22           12.5887     8.4348     2.4351 C.3     
  23 C23           13.6779     6.7515     0.9443 C.3     
  24 Cl24           5.9491     3.7348    -0.9128 Cl      
  25 N25           -0.8607     2.2695    -0.9957 N.3     
  26 H26           -0.6274     2.1103     1.0861 H       
  27 H27           -1.1732    -0.1306     0.1755 H       
  28 H28            0.3442    -0.1221    -0.7548 H       
  29 H29            0.3912    -0.1496     1.0243 H       
  30 H30            1.7079     2.7435     2.2384 H       
  31 H31            7.7521     6.8116     2.3301 H       
  32 H32           10.0949     7.3523     1.8046 H       
  33 H33           11.3960     4.1197     4.2780 H       
  34 H34            9.0536     3.5851     4.8117 H       
  35 H35           11.5608     7.1323     1.0612 H       
  36 H36           11.6878     8.6716     3.0011 H       
  37 H37           13.4412     8.3864     3.1126 H       
  38 H38           12.7622     9.2090     1.6877 H       
  39 H39           13.5529     5.7890     0.4482 H       
  40 H40           13.8514     7.5257     0.1969 H       
  41 H41           14.5304     6.7030     1.6218 H       
  42 H42           -0.3905     2.0113    -1.8503 H       
  43 H43           -1.8177     1.9497    -0.9986 H       
@<TRIPOS>BOND
   1    1    2 1
   2    1    7 1
   3    1   25 1
   4    1   26 1
   5    2   27 1
   6    2   28 1
   7    2   29 1
   8    3    4 1
   9    3    7 1
  10    4    5 2
  11    5    6 1
  12    5   12 1
  13    6    7 2
  14    6   30 1
  15    8    9 1
  16    8   12 1
  17    9   10 2
  18    9   13 1
  19   10   11 1
  20   11   12 2
  21   11   24 1
  22   13   14 1
  23   14   15 ar
  24   14   19 ar
  25   15   16 ar
  26   15   31 1
  27   16   17 ar
  28   16   32 1
  29   17   18 ar
  30   17   20 1
  31   18   19 ar
  32   18   33 1
  33   19   34 1
  34   20   21 1
  35   21   22 1
  36   21   23 1
  37   21   35 1
  38   22   36 1
  39   22   37 1
  40   22   38 1
  41   23   39 1
  42   23   40 1
  43   23   41 1
  44   25   42 1
  45   25   43 1

#	End of record

