#	Name: ASD01810732
#	Creating user name:	WinNT
#	Creation time:	15. 06. 2019 19:25

#	Modifying user name:	WinNT
#	Modification time:	15. 06. 2019 19:25

#	Program:	/corina/corina34_cracker 3.40 0067  02.08.2006

@<TRIPOS>MOLECULE
ASD01810732
  60   65    0    0    0
SMALL
NO_CHARGES


@<TRIPOS>ATOM
   1 N1            -0.0178     1.4642     0.0101 N.3     
   2 C2             0.0021    -0.0041     0.0020 C.3     
   3 C3             0.6797    -0.4993    -1.2777 C.3     
   4 C4             2.1079     0.0494    -1.3384 C.3     
   5 C5             2.0615     1.5788    -1.2797 C.3     
   6 C6             1.3439     2.0138     0.0000 C.3     
   7 C7             2.8809    -0.4635    -0.1956 C.1     
   8 N8             3.4775    -0.8594     0.6864 N.1     
   9 C9             2.7602    -0.3856    -2.6253 C.ar    
  10 C10            4.0604    -0.0074    -2.9034 C.ar    
  11 C11            4.6588    -0.4065    -4.0839 C.ar    
  12 C12            3.9572    -1.1841    -4.9861 C.ar    
  13 C13            2.6573    -1.5631    -4.7075 C.ar    
  14 C14            2.0604    -1.1677    -3.5251 C.ar    
  15 C15           -0.7829     1.9741     1.1559 C.3     
  16 C16           -0.5795     3.4626     1.2733 C.2     
  17 C17            0.5053     3.9366     1.9467 C.2     
  18 C18            0.6954     5.3236     2.0565 C.2     
  19 C19           -0.2814     6.2290     1.4419 C.2     
  20 N20           -1.3669     5.6890     0.7694 N.pl3   
  21 C21           -2.2793     6.5159     0.1953 C.2     
  22 C22           -3.3495     6.0166    -0.4674 C.2     
  23 C23           -3.5280     4.6318    -0.5685 C.2     
  24 C24           -2.6162     3.7936     0.0047 C.2     
  25 C25           -1.5089     4.3324     0.6816 C.2     
  26 N26            1.3064     7.4213     2.4235 N.am    
  27 N27            0.1200     7.4509     1.6839 N.2     
  28 C28            1.6674     6.1427     2.6569 C.2     
  29 O29            2.6538     5.7670     3.2751 O.2     
  30 C30            2.0138     8.5500     2.8569 C.ar    
  31 C31            2.4160     9.5154     1.9396 C.ar    
  32 C32            3.1141    10.6279     2.3719 C.ar    
  33 C33            3.4118    10.7804     3.7139 C.ar    
  34 C34            3.0134     9.8219     4.6271 C.ar    
  35 C35            2.3101     8.7106     4.2034 C.ar    
  36 F36            2.1255     9.3661     0.6287 F       
  37 H37            0.5557    -0.3645     0.8690 H       
  38 H38           -1.0198    -0.3814     0.0413 H       
  39 H39            0.7083    -1.5890    -1.2760 H       
  40 H40            0.1187    -0.1507    -2.1448 H       
  41 H41            3.0774     1.9739    -1.2795 H       
  42 H42            1.5223     1.9601    -2.1469 H       
  43 H43            1.2966     3.1021     0.0379 H       
  44 H44            1.8912     1.6439     0.8670 H       
  45 H45            4.6086     0.6001    -2.1986 H       
  46 H46            5.6744    -0.1104    -4.3015 H       
  47 H47            4.4245    -1.4953    -5.9087 H       
  48 H48            2.1091    -2.1704    -5.4125 H       
  49 H49            1.0461    -1.4668    -3.3058 H       
  50 H50           -1.8420     1.7626     1.0087 H       
  51 H51           -0.4385     1.4872     2.0683 H       
  52 H52            1.2123     3.2523     2.3922 H       
  53 H53           -2.1496     7.5856     0.2688 H       
  54 H54           -4.0662     6.6873    -0.9180 H       
  55 H55           -4.3807     4.2300    -1.0956 H       
  56 H56           -2.7422     2.7233    -0.0656 H       
  57 H57            3.4274    11.3782     1.6610 H       
  58 H58            3.9572    11.6502     4.0493 H       
  59 H59            3.2484     9.9442     5.6741 H       
  60 H60            1.9951     7.9653     4.9187 H       
@<TRIPOS>BOND
   1    1    2 1
   2    1    6 1
   3    1   15 1
   4    2    3 1
   5    2   37 1
   6    2   38 1
   7    3    4 1
   8    3   39 1
   9    3   40 1
  10    4    5 1
  11    4    7 1
  12    4    9 1
  13    5    6 1
  14    5   41 1
  15    5   42 1
  16    6   43 1
  17    6   44 1
  18    7    8 3
  19    9   10 ar
  20    9   14 ar
  21   10   11 ar
  22   10   45 1
  23   11   12 ar
  24   11   46 1
  25   12   13 ar
  26   12   47 1
  27   13   14 ar
  28   13   48 1
  29   14   49 1
  30   15   16 1
  31   15   50 1
  32   15   51 1
  33   16   17 1
  34   16   25 2
  35   17   18 2
  36   17   52 1
  37   18   19 1
  38   18   28 1
  39   19   20 1
  40   19   27 2
  41   20   21 1
  42   20   25 1
  43   21   22 2
  44   21   53 1
  45   22   23 1
  46   22   54 1
  47   23   24 2
  48   23   55 1
  49   24   25 1
  50   24   56 1
  51   26   27 1
  52   26   28 am
  53   26   30 1
  54   28   29 2
  55   30   31 ar
  56   30   35 ar
  57   31   32 ar
  58   31   36 1
  59   32   33 ar
  60   32   57 1
  61   33   34 ar
  62   33   58 1
  63   34   35 ar
  64   34   59 1
  65   35   60 1

#	End of record

