#	Name: ASD01914714
#	Creating user name:	WinNT
#	Creation time:	15. 06. 2019 20:04

#	Modifying user name:	WinNT
#	Modification time:	15. 06. 2019 20:04

#	Program:	/corina/corina34_cracker 3.40 0067  02.08.2006

@<TRIPOS>MOLECULE
ASD01914714
  61   65    0    0    0
SMALL
NO_CHARGES


@<TRIPOS>ATOM
   1 C1            -0.0169     1.3924     0.0097 C.ar    
   2 C2             0.0021    -0.0041     0.0020 C.ar    
   3 C3             1.2200    -0.6643    -0.0131 C.ar    
   4 C4             2.3824     0.0901    -0.0202 C.ar    
   5 C5             2.2917     1.4832    -0.0118 C.ar    
   6 N6             1.1122     2.0834     0.0026 N.ar    
   7 C7            -1.3139     2.1078     0.0197 C.2     
   8 O8            -2.3534     1.4802     0.0212 O.2     
   9 O9            -1.3403     3.4542     0.0271 O.3     
  10 C10            3.5294     2.2987    -0.0192 C.2     
  11 N11            3.4500     3.6441    -0.0112 N.am    
  12 O12            4.6156     1.7543    -0.0325 O.2     
  13 C13            4.6733     4.4502    -0.0186 C.3     
  14 C14            4.3056     5.9353    -0.0071 C.3     
  15 C15            5.5832     6.7771    -0.0147 C.3     
  16 C16            6.3939     6.4621    -1.2735 C.3     
  17 C17            6.7617     4.9770    -1.2850 C.3     
  18 C18            7.5962     4.6486    -0.0454 C.3     
  19 C19            6.7855     4.9636     1.2134 C.3     
  20 C20            5.5079     4.1218     1.2210 C.3     
  21 C21            6.4178     6.4487     1.2248 C.3     
  22 C22            5.4841     4.1352    -1.2773 C.3     
  23 N23            5.2311     8.1991    -0.0038 N.am    
  24 C24            6.2021     9.1338    -0.0080 C.2     
  25 O25            7.3696     8.7970    -0.0209 O.2     
  26 C26            5.8460    10.5720     0.0031 C.ar    
  27 C27            6.8543    11.5333    -0.0013 C.ar    
  28 C28            6.5057    12.8745     0.0087 C.ar    
  29 C29            5.1602    13.2079     0.0229 C.ar    
  30 C30            4.2105    12.1990     0.0266 C.ar    
  31 N31            4.5691    10.9337     0.0117 N.ar    
  32 C32            2.7465    12.5564     0.0419 C.3     
  33 C33           -2.6466     4.0879     0.0367 C.3     
  34 H34           -0.9221    -0.5629     0.0082 H       
  35 H35            1.2625    -1.7435    -0.0190 H       
  36 H36            3.3477    -0.3942    -0.0316 H       
  37 H37            2.5829     4.0787    -0.0006 H       
  38 H38            3.7111     6.1692    -0.8902 H       
  39 H39            3.7280     6.1596     0.8896 H       
  40 H40            5.7994     6.6960    -2.1566 H       
  41 H41            7.3041     7.0618    -1.2789 H       
  42 H42            7.3392     4.7526    -2.1817 H       
  43 H43            7.8582     3.5906    -0.0535 H       
  44 H44            8.5064     5.2483    -0.0508 H       
  45 H45            7.3800     4.7296     2.0965 H       
  46 H46            4.9303     4.3462     2.1178 H       
  47 H47            5.7698     3.0638     1.2128 H       
  48 H48            7.3279     7.0484     1.2194 H       
  49 H49            5.8402     6.6731     2.1216 H       
  50 H50            5.7460     3.0772    -1.2855 H       
  51 H51            4.8895     4.3691    -2.1604 H       
  52 H52            4.2992     8.4679     0.0066 H       
  53 H53            7.8929    11.2374    -0.0121 H       
  54 H54            7.2649    13.6426     0.0060 H       
  55 H55            4.8551    14.2439     0.0314 H       
  56 H56            2.3841    12.6478    -0.9819 H       
  57 H57            2.1872    11.7754     0.5570 H       
  58 H58            2.6094    13.5045     0.5619 H       
  59 H59           -3.2020     3.7890    -0.8523 H       
  60 H60           -3.1936     3.7794     0.9276 H       
  61 H61           -2.5250     5.1711     0.0420 H       
@<TRIPOS>BOND
   1    1    2 ar
   2    1    6 ar
   3    1    7 1
   4    2    3 ar
   5    2   34 1
   6    3    4 ar
   7    3   35 1
   8    4    5 ar
   9    4   36 1
  10    5    6 ar
  11    5   10 1
  12    7    8 2
  13    7    9 1
  14    9   33 1
  15   10   11 am
  16   10   12 2
  17   11   13 1
  18   11   37 1
  19   13   14 1
  20   13   20 1
  21   13   22 1
  22   14   15 1
  23   14   38 1
  24   14   39 1
  25   15   16 1
  26   15   21 1
  27   15   23 1
  28   16   17 1
  29   16   40 1
  30   16   41 1
  31   17   18 1
  32   17   22 1
  33   17   42 1
  34   18   19 1
  35   18   43 1
  36   18   44 1
  37   19   20 1
  38   19   21 1
  39   19   45 1
  40   20   46 1
  41   20   47 1
  42   21   48 1
  43   21   49 1
  44   22   50 1
  45   22   51 1
  46   23   24 am
  47   23   52 1
  48   24   25 2
  49   24   26 1
  50   26   27 ar
  51   26   31 ar
  52   27   28 ar
  53   27   53 1
  54   28   29 ar
  55   28   54 1
  56   29   30 ar
  57   29   55 1
  58   30   31 ar
  59   30   32 1
  60   32   56 1
  61   32   57 1
  62   32   58 1
  63   33   59 1
  64   33   60 1
  65   33   61 1

#	End of record

