#	Name: ASD01914816
#	Creating user name:	WinNT
#	Creation time:	15. 06. 2019 20:04

#	Modifying user name:	WinNT
#	Modification time:	15. 06. 2019 20:04

#	Program:	/corina/corina34_cracker 3.40 0067  02.08.2006

@<TRIPOS>MOLECULE
ASD01914816
  31   31    0    0    0
SMALL
NO_CHARGES


@<TRIPOS>ATOM
   1 C1            -0.0184     1.5028     0.0103 C.2     
   2 C2             0.0021    -0.0041     0.0020 C.3     
   3 C3             1.4513    -0.4944    -0.0145 C.3     
   4 C4             1.4720    -2.0242    -0.0229 C.3     
   5 C5             2.9213    -2.5145    -0.0393 C.3     
   6 C6             2.9420    -4.0444    -0.0478 C.3     
   7 C7             4.3912    -4.5347    -0.0642 C.3     
   8 O8             1.0234     2.1233     0.0037 O.2     
   9 C9            -2.5114     1.5179     0.0222 C.ar    
  10 C10           -1.3027     2.2212     0.0203 C.ar    
  11 C11           -1.3361     3.6234     0.0285 C.ar    
  12 C12           -2.5697     4.2491     0.0382 C.ar    
  13 C13           -3.7198     3.4801     0.0395 C.ar    
  14 N14           -3.6594     2.1617     0.0316 N.ar    
  15 H15           -0.4983    -0.3791     0.8948 H       
  16 H16           -0.5153    -0.3696    -0.8850 H       
  17 H17            1.9516    -0.1193    -0.9073 H       
  18 H18            1.9686    -0.1289     0.8726 H       
  19 H19            0.9717    -2.3993     0.8699 H       
  20 H20            0.9547    -2.3897    -0.9099 H       
  21 H21            3.4216    -2.1395    -0.9321 H       
  22 H22            3.4386    -2.1490     0.8477 H       
  23 H23            2.4417    -4.4194     0.8450 H       
  24 H24            2.4247    -4.4099    -0.9348 H       
  25 H25            4.4060    -5.6246    -0.0702 H       
  26 H26            4.8916    -4.1596    -0.9570 H       
  27 H27            4.9085    -4.1692     0.8228 H       
  28 H28           -2.5029     0.4380     0.0114 H       
  29 H29           -0.4225     4.1994     0.0277 H       
  30 H30           -2.6344     5.3272     0.0451 H       
  31 H31           -4.6837     3.9671     0.0474 H       
@<TRIPOS>BOND
   1    1    2 1
   2    1    8 2
   3    1   10 1
   4    2    3 1
   5    2   15 1
   6    2   16 1
   7    3    4 1
   8    3   17 1
   9    3   18 1
  10    4    5 1
  11    4   19 1
  12    4   20 1
  13    5    6 1
  14    5   21 1
  15    5   22 1
  16    6    7 1
  17    6   23 1
  18    6   24 1
  19    7   25 1
  20    7   26 1
  21    7   27 1
  22    9   10 ar
  23    9   14 ar
  24    9   28 1
  25   10   11 ar
  26   11   12 ar
  27   11   29 1
  28   12   13 ar
  29   12   30 1
  30   13   14 ar
  31   13   31 1

#	End of record

