#	Name: ASD01814614
#	Creating user name:	WinNT
#	Creation time:	15. 06. 2019 19:32

#	Modifying user name:	WinNT
#	Modification time:	15. 06. 2019 19:32

#	Program:	/corina/corina34_cracker 3.40 0067  02.08.2006

@<TRIPOS>MOLECULE
ASD01814614
  49   52    0    0    0
SMALL
NO_CHARGES


@<TRIPOS>ATOM
   1 C1            -0.0169     1.3972     0.0097 C.2     
   2 C2             0.0021    -0.0041     0.0020 C.2     
   3 C3             1.1986    -0.6593    -0.0129 C.2     
   4 C4             2.3918     0.0821    -0.0204 C.2     
   5 N5             2.3437     1.4497    -0.0122 N.am    
   6 C6             1.1421     2.0937     0.0024 C.2     
   7 C7             3.6227    -0.5889    -0.0356 C.2     
   8 C8             4.7877     0.1218    -0.0425 C.2     
   9 C9             4.7345     1.5280    -0.0346 C.2     
  10 C10            3.4812     2.1736    -0.0189 C.2     
  11 O11            3.4258     3.3917    -0.0123 O.2     
  12 C12            5.9703     2.3140    -0.0413 C.2     
  13 O13            5.9124     3.6618    -0.0337 O.3     
  14 O14            7.0487     1.7516    -0.0537 O.2     
  15 C15            3.6593    -2.0954    -0.0439 C.3     
  16 N16            3.7787    -2.5747    -1.4274 N.3     
  17 C17            5.0699    -2.1912    -2.0067 C.3     
  18 C18            5.2220    -2.7720    -3.3884 C.ar    
  19 C19            4.4358    -3.8115    -3.8290 C.ar    
  20 C20            3.3711    -4.4252    -2.9568 C.3     
  21 C21            3.6027    -4.0341    -1.4970 C.3     
  22 C22            6.1875    -2.2328    -4.2281 C.ar    
  23 C23            6.3700    -2.7300    -5.5043 C.ar    
  24 C24            5.5895    -3.7732    -5.9569 C.ar    
  25 C25            4.6174    -4.3213    -5.1203 C.ar    
  26 C26            3.7775    -5.4389    -5.5976 C.2     
  27 O27            2.9308    -5.9165    -4.8692 O.2     
  28 O28            3.9506    -5.9285    -6.8406 O.3     
  29 C29            3.0900    -7.0268    -7.2423 C.3     
  30 H30           -0.9605     1.9226     0.0170 H       
  31 H31           -0.9233    -0.5609     0.0082 H       
  32 H32            1.2282    -1.7389    -0.0187 H       
  33 H33            1.1156     3.1733     0.0087 H       
  34 H34            5.7393    -0.3889    -0.0536 H       
  35 H35            6.7544     4.1373    -0.0385 H       
  36 H36            4.5153    -2.4412     0.5356 H       
  37 H37            2.7412    -2.4836     0.3971 H       
  38 H38            5.1295    -1.1044    -2.0649 H       
  39 H39            5.8738    -2.5614    -1.3705 H       
  40 H40            2.3918    -4.0685    -3.2761 H       
  41 H41            3.4075    -5.5105    -3.0508 H       
  42 H42            4.4987    -4.5294    -1.1228 H       
  43 H43            2.7408    -4.3281    -0.8979 H       
  44 H44            6.8022    -1.4157    -3.8801 H       
  45 H45            7.1240    -2.3014    -6.1478 H       
  46 H46            5.7307    -4.1641    -6.9537 H       
  47 H47            3.2421    -7.8719    -6.5709 H       
  48 H48            2.0486    -6.7083    -7.1954 H       
  49 H49            3.3332    -7.3247    -8.2622 H       
@<TRIPOS>BOND
   1    1    2 1
   2    1    6 2
   3    1   30 1
   4    2    3 2
   5    2   31 1
   6    3    4 1
   7    3   32 1
   8    4    5 1
   9    4    7 2
  10    5    6 1
  11    5   10 am
  12    6   33 1
  13    7    8 1
  14    7   15 1
  15    8    9 2
  16    8   34 1
  17    9   10 1
  18    9   12 1
  19   10   11 2
  20   12   13 1
  21   12   14 2
  22   13   35 1
  23   15   16 1
  24   15   36 1
  25   15   37 1
  26   16   17 1
  27   16   21 1
  28   17   18 1
  29   17   38 1
  30   17   39 1
  31   18   19 ar
  32   18   22 ar
  33   19   20 1
  34   19   25 ar
  35   20   21 1
  36   20   40 1
  37   20   41 1
  38   21   42 1
  39   21   43 1
  40   22   23 ar
  41   22   44 1
  42   23   24 ar
  43   23   45 1
  44   24   25 ar
  45   24   46 1
  46   25   26 1
  47   26   27 2
  48   26   28 1
  49   28   29 1
  50   29   47 1
  51   29   48 1
  52   29   49 1

#	End of record

