#	Name: ASD03330285
#	Creating user name:	WinNT
#	Creation time:	15. 06. 2019 20:36

#	Modifying user name:	WinNT
#	Modification time:	15. 06. 2019 20:36

#	Program:	/corina/corina34_cracker 3.40 0067  02.08.2006

@<TRIPOS>MOLECULE
ASD03330285
  54   56    0    0    0
SMALL
NO_CHARGES


@<TRIPOS>ATOM
   1 C1            -0.5530     1.0906    -0.1668 C.3     
   2 N2            -0.8914    -0.2826    -0.5660 N.3     
   3 C3            -0.1692    -0.6754    -1.7896 C.3     
   4 C4             1.2894    -0.3518    -1.5927 C.2     
   5 N5             1.7553     0.4720    -0.6071 N.pl3   
   6 C6             0.8850     1.1385     0.3659 C.3     
   7 C7             2.3634    -0.7795    -2.2993 C.2     
   8 N8             3.4713    -0.2206    -1.7427 N.2     
   9 C9             3.1076     0.5303    -0.7261 C.2     
  10 C10            4.0174     1.3080     0.1411 C.2     
  11 C11            3.6355     1.8242     1.3245 C.2     
  12 C12            2.3360    -1.6859    -3.4603 C.2     
  13 O13            1.2758    -2.1223    -3.8662 O.2     
  14 C14            3.4586    -2.9330    -5.2271 C.3     
  15 N15            3.4858    -2.0316    -4.0726 N.am    
  16 C16            3.1955    -2.1246    -6.4992 C.3     
  17 C17            4.2583    -1.0328    -6.6386 C.3     
  18 C18            3.2549    -3.0523    -7.7144 C.3     
  19 C19            1.8103    -1.4802    -6.4166 C.3     
  20 C20           -2.3419    -0.4386    -0.7378 C.3     
  21 C21            4.7853    -3.6380    -5.3453 C.2     
  22 O22            5.7659    -3.1808    -4.7975 O.2     
  23 N23            4.8819    -4.7767    -6.0599 N.am    
  24 C24            6.1447    -5.5190    -6.0878 C.3     
  25 S25            4.9305     2.6581     2.0588 S.3     
  26 C26            6.0010     2.2858     0.7159 C.2     
  27 C27            5.3491     1.5654    -0.1940 C.2     
  28 H28           -0.6419     1.7510    -1.0294 H       
  29 H29           -1.2393     1.4207     0.6130 H       
  30 H30           -0.2895    -1.7451    -1.9612 H       
  31 H31           -0.5584    -0.1187    -2.6420 H       
  32 H32            1.1973     2.1755     0.4890 H       
  33 H33            0.9399     0.6211     1.3236 H       
  34 H34            2.6476     1.7248     1.7493 H       
  35 H35            2.6663    -3.6696    -5.0944 H       
  36 H36            4.3314    -1.6836    -3.7488 H       
  37 H37            5.2452    -1.4919    -6.6974 H       
  38 H38            4.0709    -0.4569    -7.5448 H       
  39 H39            4.2161    -0.3719    -5.7728 H       
  40 H40            2.5076    -3.8386    -7.6081 H       
  41 H41            3.0530    -2.4791    -8.6193 H       
  42 H42            4.2464    -3.5000    -7.7816 H       
  43 H43            1.7680    -0.8193    -5.5509 H       
  44 H44            1.6229    -0.9043    -7.3229 H       
  45 H45            1.0531    -2.2580    -6.3173 H       
  46 H46           -2.7032     0.2943    -1.4592 H       
  47 H47           -2.5589    -1.4432    -1.1007 H       
  48 H48           -2.8400    -0.2825     0.2192 H       
  49 H49            4.1154    -5.1048    -6.5556 H       
  50 H50            6.0315    -6.4050    -6.7125 H       
  51 H51            6.9305    -4.8840    -6.4968 H       
  52 H52            6.4114    -5.8203    -5.0748 H       
  53 H53            7.0340     2.5921     0.6418 H       
  54 H54            5.8052     1.2182    -1.1094 H       
@<TRIPOS>BOND
   1    1    2 1
   2    1    6 1
   3    1   28 1
   4    1   29 1
   5    2    3 1
   6    2   20 1
   7    3    4 1
   8    3   30 1
   9    3   31 1
  10    4    5 1
  11    4    7 2
  12    5    6 1
  13    5    9 1
  14    6   32 1
  15    6   33 1
  16    7    8 1
  17    7   12 1
  18    8    9 2
  19    9   10 1
  20   10   11 2
  21   10   27 1
  22   11   25 1
  23   11   34 1
  24   12   13 2
  25   12   15 am
  26   14   15 1
  27   14   21 1
  28   14   16 1
  29   14   35 1
  30   15   36 1
  31   16   17 1
  32   16   18 1
  33   16   19 1
  34   17   37 1
  35   17   38 1
  36   17   39 1
  37   18   40 1
  38   18   41 1
  39   18   42 1
  40   19   43 1
  41   19   44 1
  42   19   45 1
  43   20   46 1
  44   20   47 1
  45   20   48 1
  46   21   22 2
  47   21   23 am
  48   23   24 1
  49   23   49 1
  50   24   50 1
  51   24   51 1
  52   24   52 1
  53   25   26 1
  54   26   27 2
  55   26   53 1
  56   27   54 1

#	End of record

