#	Name: ASD01940031
#	Creating user name:	WinNT
#	Creation time:	15. 06. 2019 20:11

#	Modifying user name:	WinNT
#	Modification time:	15. 06. 2019 20:11

#	Program:	/corina/corina34_cracker 3.40 0067  02.08.2006

@<TRIPOS>MOLECULE
ASD01940031
  47   49    0    0    0
SMALL
NO_CHARGES


@<TRIPOS>ATOM
   1 C1            -0.1651     1.1878    -0.0600 C.ar    
   2 C2            -0.1623    -0.0644    -0.6611 C.ar    
   3 C3            -1.2726    -0.8793    -0.5630 C.ar    
   4 C4            -2.3909    -0.4476     0.1358 C.ar    
   5 C5            -2.3944     0.8031     0.7365 C.ar    
   6 C6            -1.2827     1.6169     0.6442 C.ar    
   7 N7             0.9599     2.0143    -0.1590 N.pl3   
   8 C8             0.8045     3.3857    -0.2526 C.2     
   9 C9             1.8033     4.3487    -0.2303 C.2     
  10 C10            1.3234     5.6543    -0.3458 C.2     
  11 N11            0.0378     5.7990    -0.4565 N.2     
  12 S12           -0.6672     4.2584    -0.4288 S.3     
  13 O13            2.1617     6.7231    -0.3421 O.3     
  14 C14            3.2328     4.0243    -0.0971 C.2     
  15 N15            3.8079     3.9430     1.1540 N.pl3   
  16 N16            3.9572     3.8132    -1.1643 N.2     
  17 C17            5.2307     3.6201     1.2866 C.3     
  18 C18            6.0588     4.8993     1.1501 C.3     
  19 C19            5.4853     2.9916     2.6581 C.3     
  20 O20            5.2193     3.9543     3.6800 O.3     
  21 O21           -3.4840    -1.2504     0.2315 O.3     
  22 C22           -3.3719    -2.3979     0.9515 C.ar    
  23 C23           -4.4174    -3.3122     0.9707 C.ar    
  24 C24           -4.2993    -4.4800     1.7047 C.ar    
  25 C25           -3.1415    -4.7348     2.4181 C.ar    
  26 C26           -2.2109    -2.6607     1.6637 C.ar    
  27 F27           -5.5479    -3.0620     0.2745 F       
  28 C28           -2.1006    -3.8251     2.3993 C.ar    
  29 Cl29          -5.6044    -5.6245     1.7306 Cl      
  30 H30            0.7079    -0.4004    -1.2053 H       
  31 H31           -1.2708    -1.8528    -1.0306 H       
  32 H32           -3.2652     1.1384     1.2802 H       
  33 H33           -1.2855     2.5902     1.1121 H       
  34 H34            1.8486     1.6256    -0.1620 H       
  35 H35            2.4745     6.9807    -1.2201 H       
  36 H36            3.2702     4.0997     1.9460 H       
  37 H37            4.8992     3.5994    -1.0765 H       
  38 H38            5.5178     2.9163     0.5054 H       
  39 H39            7.1174     4.6591     1.2487 H       
  40 H40            5.8774     5.3471     0.1730 H       
  41 H41            5.7716     5.6032     1.9313 H       
  42 H42            4.8301     2.1306     2.7905 H       
  43 H43            6.5249     2.6704     2.7232 H       
  44 H44            5.3602     3.6240     4.5779 H       
  45 H45           -3.0509    -5.6459     2.9909 H       
  46 H46           -1.3950    -1.9533     1.6466 H       
  47 H47           -1.1981    -4.0269     2.9571 H       
@<TRIPOS>BOND
   1    1    2 ar
   2    1    7 1
   3    1    6 ar
   4    2    3 ar
   5    2   30 1
   6    3    4 ar
   7    3   31 1
   8    4    5 ar
   9    4   21 1
  10    5    6 ar
  11    5   32 1
  12    6   33 1
  13    7    8 1
  14    7   34 1
  15    8    9 2
  16    8   12 1
  17    9   10 1
  18    9   14 1
  19   10   11 2
  20   10   13 1
  21   11   12 1
  22   13   35 1
  23   14   15 1
  24   14   16 2
  25   15   17 1
  26   15   36 1
  27   16   37 1
  28   17   18 1
  29   17   19 1
  30   17   38 1
  31   18   39 1
  32   18   40 1
  33   18   41 1
  34   19   20 1
  35   19   42 1
  36   19   43 1
  37   20   44 1
  38   21   22 1
  39   22   23 ar
  40   22   26 ar
  41   23   24 ar
  42   23   27 1
  43   24   25 ar
  44   24   29 1
  45   25   28 ar
  46   25   45 1
  47   26   28 ar
  48   26   46 1
  49   28   47 1

#	End of record

