#	Name: ASD01890195
#	Creating user name:	WinNT
#	Creation time:	15. 06. 2019 19:50

#	Modifying user name:	WinNT
#	Modification time:	15. 06. 2019 19:50

#	Program:	/corina/corina34_cracker 3.40 0067  02.08.2006

@<TRIPOS>MOLECULE
ASD01890195
  28   29    0    0    0
SMALL
NO_CHARGES


@<TRIPOS>ATOM
   1 C1            -0.0177     1.4576     0.0101 C.2     
   2 C2             0.0021    -0.0041     0.0020 C.2     
   3 C3             1.1812    -0.6636    -0.0128 C.2     
   4 O4             1.0281     2.0805     0.0034 O.2     
   5 C5            -1.3086     2.1796     0.0201 C.ar    
   6 C6            -1.3311     3.5756     0.0278 C.ar    
   7 C7            -2.5384     4.2427     0.0367 C.ar    
   8 C8            -3.7254     3.5316     0.0384 C.ar    
   9 C9            -3.7103     2.1479     0.0313 C.ar    
  10 C10           -2.5099     1.4683     0.0161 C.ar    
  11 C11            1.2012    -2.1341    -0.0209 C.ar    
  12 C12            2.4203    -2.8207    -0.0362 C.ar    
  13 C13            2.4310    -4.1989    -0.0437 C.ar    
  14 C14            1.2387    -4.9043    -0.0362 C.ar    
  15 C15            0.0278    -4.2316    -0.0210 C.ar    
  16 C16            0.0011    -2.8536    -0.0075 C.ar    
  17 Br17           1.2644    -6.7951    -0.0473 Br      
  18 H18           -0.9258    -0.5567     0.0079 H       
  19 H19            2.1091    -0.1110    -0.0187 H       
  20 H20           -0.4054     4.1318     0.0272 H       
  21 H21           -2.5572     5.3226     0.0426 H       
  22 H22           -4.6680     4.0588     0.0457 H       
  23 H23           -4.6403     1.5988     0.0334 H       
  24 H24           -2.4994     0.3884     0.0060 H       
  25 H25            3.3506    -2.2720    -0.0425 H       
  26 H26            3.3712    -4.7302    -0.0559 H       
  27 H27           -0.8976    -4.7883    -0.0152 H       
  28 H28           -0.9436    -2.3306     0.0089 H       
@<TRIPOS>BOND
   1    1    2 1
   2    1    4 2
   3    1    5 1
   4    2    3 2
   5    2   18 1
   6    3   11 1
   7    3   19 1
   8    5    6 ar
   9    5   10 ar
  10    6    7 ar
  11    6   20 1
  12    7    8 ar
  13    7   21 1
  14    8    9 ar
  15    8   22 1
  16    9   10 ar
  17    9   23 1
  18   10   24 1
  19   11   12 ar
  20   11   16 ar
  21   12   13 ar
  22   12   25 1
  23   13   14 ar
  24   13   26 1
  25   14   15 ar
  26   14   17 1
  27   15   16 ar
  28   15   27 1
  29   16   28 1

#	End of record

