#	Name: ASD00844828
#	Creating user name:	WinNT
#	Creation time:	15. 06. 2019 18:51

#	Modifying user name:	WinNT
#	Modification time:	15. 06. 2019 18:51

#	Program:	/corina/corina34_cracker 3.40 0067  02.08.2006

@<TRIPOS>MOLECULE
ASD00844828
  99  104    0    0    0
SMALL
NO_CHARGES


@<TRIPOS>ATOM
   1 F1             5.6879    -2.1910    -1.9601 F       
   2 C2             0.7391     1.2422    -0.3669 C.ar    
   3 C3             0.9803    -0.0957    -0.6424 C.ar    
   4 C4             0.8533    -1.0427     0.3637 C.ar    
   5 C5             0.4871    -0.6513     1.6367 C.ar    
   6 C6             0.2467     0.6831     1.9087 C.ar    
   7 C7             0.3730     1.6286     0.9081 C.ar    
   8 C8             1.1143    -2.4971     0.0677 C.3     
   9 C9             0.7836    -3.3512     1.2731 C.2     
  10 C10            0.3031    -2.9491    -1.1482 C.3     
  11 C11           -1.1563    -2.6532    -0.9167 C.2     
  12 N12           -2.0770    -3.0615    -1.8123 N.am    
  13 O13           -1.5023    -2.0477     0.0755 O.2     
  14 C14           -3.4885    -2.6828    -1.6605 C.3     
  15 C15           -4.3458    -3.9520    -1.6935 C.3     
  16 C16           -4.0395    -4.7365    -2.9714 C.3     
  17 C17           -2.5657    -5.1489    -2.9779 C.3     
  18 C18           -1.6873    -3.8886    -2.9625 C.3     
  19 C19           -4.9190    -5.9873    -3.0247 C.3     
  20 C20           -6.3940    -5.5763    -3.0199 C.3     
  21 C21           -7.2675    -6.8276    -3.1348 C.3     
  22 N22           -6.9434    -7.5401    -4.3773 N.3     
  23 C23           -5.5443    -7.9860    -4.3842 C.3     
  24 C24           -4.6193    -6.7693    -4.3066 C.3     
  25 C25           -7.8573    -8.6704    -4.5898 C.3     
  26 O26           -0.3025    -3.4615     1.8017 O.2     
  27 N27            1.9190    -3.9648     1.6469 N.am    
  28 C28            2.5896    -2.7351    -0.1582 C.ar    
  29 C29            2.9976    -3.6248     0.8277 C.ar    
  30 C30            3.4829    -2.2550    -1.0892 C.ar    
  31 C31            4.8077    -2.6599    -1.0488 C.ar    
  32 C32            5.2264    -3.5469    -0.0701 C.ar    
  33 C33            4.3304    -4.0284     0.8637 C.ar    
  34 Cl34           6.8854    -4.0554    -0.0176 Cl      
  35 C35            1.6974    -6.6237     2.3219 C.ar    
  36 C36            0.4423    -6.9322     1.8171 C.ar    
  37 C37            2.6908    -7.5842     2.3414 C.ar    
  38 C38            2.4373    -8.8534     1.8581 C.ar    
  39 C39            1.1835    -9.1669     1.3522 C.ar    
  40 C40            0.1853    -8.2054     1.3319 C.ar    
  41 O41            0.9345   -10.4157     0.8774 O.3     
  42 O42           -0.5343    -5.9874     1.7985 O.3     
  43 C43           -1.8019    -6.3750     1.2647 C.3     
  44 C44            2.0094   -11.3559     0.9298 C.3     
  45 C45           -7.5699    -9.3099    -5.9496 C.3     
  46 C46           -7.6508    -9.7079    -3.4844 C.3     
  47 S47            2.0271    -5.0038     2.9318 S.o2    
  48 O48            3.3884    -4.9979     3.3393 O.2     
  49 O49            0.9534    -4.6771     3.8035 O.2     
  50 O50            1.3401    -0.4784    -1.8958 O.3     
  51 C51            1.3727     0.5377    -2.9001 C.3     
  52 C52            1.8814    -0.0596    -4.2136 C.3     
  53 F53            3.1322    -0.6501    -4.0039 F       
  54 F54            0.9787    -1.0278    -4.6661 F       
  55 H55            0.8416     1.9817    -1.1473 H       
  56 H56            0.3882    -1.3880     2.4202 H       
  57 H57           -0.0402     0.9871     2.9045 H       
  58 H58            0.1847     2.6701     1.1231 H       
  59 H59            0.6464    -2.4137    -2.0334 H       
  60 H60            0.4375    -4.0206    -1.2968 H       
  61 H61           -3.6292    -2.1715    -0.7082 H       
  62 H62           -3.7800    -2.0236    -2.4781 H       
  63 H63           -4.1167    -4.5685    -0.8244 H       
  64 H64           -5.4009    -3.6788    -1.6785 H       
  65 H65           -4.2454    -4.1108    -3.8398 H       
  66 H66           -2.3533    -5.7541    -2.0966 H       
  67 H67           -2.3538    -5.7276    -3.8770 H       
  68 H68           -1.8332    -3.3302    -3.8871 H       
  69 H69           -0.6398    -4.1745    -2.8672 H       
  70 H70           -4.7129    -6.6148    -2.1576 H       
  71 H71           -6.6238    -5.0562    -2.0900 H       
  72 H72           -6.5906    -4.9164    -3.8649 H       
  73 H73           -7.0805    -7.4807    -2.2823 H       
  74 H74           -8.3181    -6.5373    -3.1461 H       
  75 H75           -5.3653    -8.6336    -3.5258 H       
  76 H76           -5.3433    -8.5371    -5.3029 H       
  77 H77           -4.7880    -6.1282    -5.1718 H       
  78 H78           -3.5812    -7.1015    -4.2960 H       
  79 H79           -8.8872    -8.3143    -4.5661 H       
  80 H80            3.1516    -1.5641    -1.8503 H       
  81 H81            4.6636    -4.7196     1.6237 H       
  82 H82            3.6671    -7.3422     2.7347 H       
  83 H83            3.2155    -9.6021     1.8738 H       
  84 H84           -0.7911    -8.4476     0.9389 H       
  85 H85           -2.4885    -5.5296     1.3088 H       
  86 H86           -1.6788    -6.6894     0.2283 H       
  87 H87           -2.2051    -7.2015     1.8497 H       
  88 H88            2.8485   -10.9815     0.3434 H       
  89 H89            2.3221   -11.4930     1.9649 H       
  90 H90            1.6776   -12.3103     0.5210 H       
  91 H91           -6.5399    -9.6660    -5.9733 H       
  92 H92           -8.2480   -10.1486    -6.1073 H       
  93 H93           -7.7169    -8.5708    -6.7371 H       
  94 H94           -7.8556    -9.2523    -2.5156 H       
  95 H95           -8.3289   -10.5466    -3.6420 H       
  96 H96           -6.6209   -10.0640    -3.5080 H       
  97 H97            0.3687     0.9359    -3.0468 H       
  98 H98            2.0392     1.3401    -2.5836 H       
  99 H99            1.9726     0.7293    -4.9602 H       
@<TRIPOS>BOND
   1    1   31 1
   2    2    3 ar
   3    2    7 ar
   4    2   55 1
   5    3    4 ar
   6    3   50 1
   7    4    5 ar
   8    4    8 1
   9    5    6 ar
  10    5   56 1
  11    6    7 ar
  12    6   57 1
  13    7   58 1
  14    8    9 1
  15    8   10 1
  16    8   28 1
  17    9   26 2
  18    9   27 am
  19   10   11 1
  20   10   59 1
  21   10   60 1
  22   11   12 am
  23   11   13 2
  24   12   14 1
  25   12   18 1
  26   14   15 1
  27   14   61 1
  28   14   62 1
  29   15   16 1
  30   15   63 1
  31   15   64 1
  32   16   17 1
  33   16   19 1
  34   16   65 1
  35   17   18 1
  36   17   66 1
  37   17   67 1
  38   18   68 1
  39   18   69 1
  40   19   20 1
  41   19   24 1
  42   19   70 1
  43   20   21 1
  44   20   71 1
  45   20   72 1
  46   21   22 1
  47   21   73 1
  48   21   74 1
  49   22   23 1
  50   22   25 1
  51   23   24 1
  52   23   75 1
  53   23   76 1
  54   24   77 1
  55   24   78 1
  56   25   45 1
  57   25   46 1
  58   25   79 1
  59   27   47 am
  60   27   29 1
  61   28   29 ar
  62   28   30 ar
  63   29   33 ar
  64   30   31 ar
  65   30   80 1
  66   31   32 ar
  67   32   33 ar
  68   32   34 1
  69   33   81 1
  70   35   36 ar
  71   35   37 ar
  72   35   47 1
  73   36   42 1
  74   36   40 ar
  75   37   38 ar
  76   37   82 1
  77   38   39 ar
  78   38   83 1
  79   39   40 ar
  80   39   41 1
  81   40   84 1
  82   41   44 1
  83   42   43 1
  84   43   85 1
  85   43   86 1
  86   43   87 1
  87   44   88 1
  88   44   89 1
  89   44   90 1
  90   45   91 1
  91   45   92 1
  92   45   93 1
  93   46   94 1
  94   46   95 1
  95   46   96 1
  96   47   48 2
  97   47   49 2
  98   50   51 1
  99   51   52 1
 100   51   97 1
 101   51   98 1
 102   52   53 1
 103   52   54 1
 104   52   99 1

#	End of record

