#	Name: ASD00190007
#	Creating user name:	WinNT
#	Creation time:	15. 06. 2019 18:33

#	Modifying user name:	WinNT
#	Modification time:	15. 06. 2019 18:33

#	Program:	/corina/corina34_cracker 3.40 0067  02.08.2006

@<TRIPOS>MOLECULE
ASD00190007
  48   53    0    0    0
SMALL
NO_CHARGES


@<TRIPOS>ATOM
   1 C1            -0.0154     1.3889     0.0342 C.ar    
   2 C2             0.0026    -0.0010     0.0127 C.ar    
   3 C3             1.1803    -0.6877    -0.0093 C.ar    
   4 C4             2.3965     0.0125    -0.0108 C.ar    
   5 C5             2.3716     1.4268     0.0108 C.ar    
   6 C6             1.1501     2.1010     0.0335 C.ar    
   7 N7             3.5675    -0.6413    -0.0317 N.ar    
   8 C8             4.7280    -0.0215    -0.0334 C.ar    
   9 C9             4.8213     1.3786    -0.0128 C.ar    
  10 C10            3.6487     2.1455     0.0089 C.ar    
  11 N11            5.8676     2.2770    -0.0095 N.pl3   
  12 C12            5.3194     3.5317     0.0144 C.2     
  13 N13            4.0042     3.4340     0.0249 N.2     
  14 N14            5.8936    -0.7740    -0.0558 N.pl3   
  15 C15            5.8284    -2.1665     0.0433 C.ar    
  16 C16            6.0757     4.7863     0.0258 C.2     
  17 C17            6.7379    -2.9569    -0.6452 C.ar    
  18 C18            6.6738    -4.3357    -0.5482 C.ar    
  19 C19            5.7014    -4.9275     0.2370 C.ar    
  20 C20            4.7926    -4.1393     0.9248 C.ar    
  21 C21            4.8562    -2.7640     0.8359 C.ar    
  22 C22            7.4185     4.9190     0.0143 C.2     
  23 C23            7.7896     6.3288     0.0313 C.2     
  24 C24            6.7068     7.1030     0.0535 C.2     
  25 C25            5.5040     6.1867     0.0460 C.3     
  26 C26            7.5339    -5.4039    -1.1891 C.3     
  27 C27            7.2629    -6.6849    -0.3718 C.3     
  28 C28            5.8424    -6.4337     0.1767 C.3     
  29 H29           -0.9607     1.9110     0.0472 H       
  30 H30           -0.9304    -0.5450     0.0137 H       
  31 H31            1.1771    -1.7676    -0.0252 H       
  32 H32            1.1264     3.1806     0.0500 H       
  33 H33            6.8132     2.0609    -0.0215 H       
  34 H34            6.7538    -0.3336    -0.1402 H       
  35 H35            7.4974    -2.4947    -1.2584 H       
  36 H36            4.0340    -4.6036     1.5375 H       
  37 H37            4.1462    -2.1535     1.3738 H       
  38 H38            8.1191     4.0972    -0.0048 H       
  39 H39            8.8055     6.6955     0.0268 H       
  40 H40            6.6905     8.1828     0.0695 H       
  41 H41            4.8968     6.3665    -0.8412 H       
  42 H42            4.9103     6.3340     0.9481 H       
  43 H43            7.2429    -5.5502    -2.2292 H       
  44 H44            8.5871    -5.1302    -1.1251 H       
  45 H45            7.2801    -7.5652    -1.0143 H       
  46 H46            7.9807    -6.7841     0.4424 H       
  47 H47            5.7404    -6.8633     1.1733 H       
  48 H48            5.0967    -6.8567    -0.4965 H       
@<TRIPOS>BOND
   1    1    2 ar
   2    1    6 ar
   3    1   29 1
   4    2    3 ar
   5    2   30 1
   6    3    4 ar
   7    3   31 1
   8    4    5 ar
   9    4    7 ar
  10    5    6 ar
  11    5   10 ar
  12    6   32 1
  13    7    8 ar
  14    8    9 ar
  15    8   14 1
  16    9   10 ar
  17    9   11 1
  18   10   13 1
  19   11   12 1
  20   11   33 1
  21   12   13 2
  22   12   16 1
  23   14   15 1
  24   14   34 1
  25   15   17 ar
  26   15   21 ar
  27   16   22 2
  28   16   25 1
  29   17   18 ar
  30   17   35 1
  31   18   19 ar
  32   18   26 1
  33   19   20 ar
  34   19   28 1
  35   20   21 ar
  36   20   36 1
  37   21   37 1
  38   22   23 1
  39   22   38 1
  40   23   24 2
  41   23   39 1
  42   24   25 1
  43   24   40 1
  44   25   41 1
  45   25   42 1
  46   26   27 1
  47   26   43 1
  48   26   44 1
  49   27   28 1
  50   27   45 1
  51   27   46 1
  52   28   47 1
  53   28   48 1

#	End of record

