#	Name: ASD07301073
#	Creating user name:	WinNT
#	Creation time:	15. 06. 2019 21:10

#	Modifying user name:	WinNT
#	Modification time:	15. 06. 2019 21:10

#	Program:	/corina/corina34_cracker 3.40 0067  02.08.2006

@<TRIPOS>MOLECULE
ASD07301073
  19   19    0    0    0
SMALL
NO_CHARGES


@<TRIPOS>ATOM
   1 C1            -0.0179     1.4689     0.0101 C.2     
   2 C2             0.0021    -0.0041     0.0020 C.ar    
   3 C3             1.2232    -0.6904    -0.0133 C.ar    
   4 C4             1.2351    -2.0703    -0.0204 C.ar    
   5 C5             0.0392    -2.7766    -0.0123 C.ar    
   6 C6            -1.1747    -2.0981     0.0030 C.ar    
   7 C7            -1.1978    -0.7221     0.0155 C.ar    
   8 O8             1.0261     2.0908     0.0035 O.2     
   9 O9            -1.1940     2.1268     0.0193 O.3     
  10 O10            0.0553    -4.1335    -0.0197 O.3     
  11 C11           -1.2101    -4.7973    -0.0107 C.3     
  12 F12           -1.9407    -4.4239    -1.1437 F       
  13 F13           -1.0103    -6.1820    -0.0201 F       
  14 F14           -1.9180    -4.4361     1.1407 F       
  15 F15            2.3863    -0.0031    -0.0217 F       
  16 H16            2.1753    -2.6016    -0.0326 H       
  17 H17           -2.1016    -2.6524     0.0092 H       
  18 H18           -2.1416    -0.1974     0.0315 H       
  19 H19           -1.1565     3.0930     0.0243 H       
@<TRIPOS>BOND
   1    1    2 1
   2    1    8 2
   3    1    9 1
   4    2    3 ar
   5    2    7 ar
   6    3    4 ar
   7    3   15 1
   8    4    5 ar
   9    4   16 1
  10    5    6 ar
  11    5   10 1
  12    6    7 ar
  13    6   17 1
  14    7   18 1
  15    9   19 1
  16   10   11 1
  17   11   12 1
  18   11   13 1
  19   11   14 1

#	End of record

