#	Name: ASD01810476
#	Creating user name:	WinNT
#	Creation time:	15. 06. 2019 19:24

#	Modifying user name:	WinNT
#	Modification time:	15. 06. 2019 19:24

#	Program:	/corina/corina34_cracker 3.40 0067  02.08.2006

@<TRIPOS>MOLECULE
ASD01810476
  50   52    0    0    0
SMALL
NO_CHARGES


@<TRIPOS>ATOM
   1 C1            -0.0755    -0.0225     0.0031 C.1     
   2 C2            -0.0789     1.4095     0.0132 C.ar    
   3 C3             1.1255     2.1245     0.0198 C.ar    
   4 C4             1.0671     3.5067     0.0296 C.ar    
   5 C5            -0.1668     4.1326     0.0326 C.ar    
   6 N6            -1.2854     3.4333     0.0266 N.ar    
   7 C7            -1.2825     2.1165     0.0109 C.ar    
   8 N8            -0.0728    -1.1585    -0.0050 N.1     
   9 N9            -0.9718     8.1378     1.1420 N.am    
  10 C10           -1.7628     7.6134     0.0204 C.3     
  11 C11           -1.6983     6.0830     0.0446 C.3     
  12 C12           -0.2340     5.6380     0.0432 C.3     
  13 C13            0.4639     6.1707     1.2967 C.3     
  14 C14            0.4239     7.7021     1.2868 C.3     
  15 F15            0.4049     6.1412    -1.0951 F       
  16 C16           -1.5144     9.0063     2.0182 C.2     
  17 C17           -0.7370     9.4532     3.1939 C.ar    
  18 C18           -1.2578     9.2944     4.4795 C.ar    
  19 C19           -0.5303     9.7118     5.5751 C.ar    
  20 C20            0.7149    10.2879     5.4053 C.ar    
  21 C21            1.2421    10.4509     4.1298 C.ar    
  22 C22            0.5213    10.0295     3.0226 C.ar    
  23 O23           -2.6429     9.4222     1.8419 O.2     
  24 C24           -2.6149     8.6675     4.6705 C.3     
  25 C25            1.5029    10.7410     6.6073 C.3     
  26 C26            1.2503    12.2302     6.8509 C.3     
  27 N27            2.5006    11.0346     3.9634 N.pl3   
  28 H28            2.0751     1.6102     0.0177 H       
  29 H29            1.9754     4.0911     0.0353 H       
  30 H30           -2.2192     1.5790     0.0009 H       
  31 H31           -2.7988     7.9370     0.1211 H       
  32 H32           -1.3525     7.9816    -0.9198 H       
  33 H33           -2.1904     5.7122     0.9437 H       
  34 H34           -2.2007     5.6837    -0.8366 H       
  35 H35           -0.0485     5.7992     2.1841 H       
  36 H36            1.5005     5.8339     1.3068 H       
  37 H37            1.0126     8.0776     0.4498 H       
  38 H38            0.8308     8.0843     2.2230 H       
  39 H39           -0.9352     9.5883     6.5687 H       
  40 H40            0.9311    10.1512     2.0308 H       
  41 H41           -2.5146     7.5822     4.6879 H       
  42 H42           -3.0429     9.0079     5.6134 H       
  43 H43           -3.2686     8.9588     3.8484 H       
  44 H44            1.1902    10.1715     7.4825 H       
  45 H45            2.5655    10.5773     6.4279 H       
  46 H46            1.8202    12.5580     7.7203 H       
  47 H47            1.5629    12.7997     5.9757 H       
  48 H48            0.1877    12.3939     7.0303 H       
  49 H49            3.0063    11.3261     4.7381 H       
  50 H50            2.8685    11.1484     3.0731 H       
@<TRIPOS>BOND
   1    1    2 1
   2    1    8 3
   3    2    3 ar
   4    2    7 ar
   5    3    4 ar
   6    3   28 1
   7    4    5 ar
   8    4   29 1
   9    5    6 ar
  10    5   12 1
  11    6    7 ar
  12    7   30 1
  13    9   10 1
  14    9   14 1
  15    9   16 am
  16   10   11 1
  17   10   31 1
  18   10   32 1
  19   11   12 1
  20   11   33 1
  21   11   34 1
  22   12   13 1
  23   12   15 1
  24   13   14 1
  25   13   35 1
  26   13   36 1
  27   14   37 1
  28   14   38 1
  29   16   17 1
  30   16   23 2
  31   17   18 ar
  32   17   22 ar
  33   18   19 ar
  34   18   24 1
  35   19   20 ar
  36   19   39 1
  37   20   21 ar
  38   20   25 1
  39   21   22 ar
  40   21   27 1
  41   22   40 1
  42   24   41 1
  43   24   42 1
  44   24   43 1
  45   25   26 1
  46   25   44 1
  47   25   45 1
  48   26   46 1
  49   26   47 1
  50   26   48 1
  51   27   49 1
  52   27   50 1

#	End of record

