#	Name: ASD07930168
#	Creating user name:	WinNT
#	Creation time:	15. 06. 2019 21:11

#	Modifying user name:	WinNT
#	Modification time:	15. 06. 2019 21:11

#	Program:	/corina/corina34_cracker 3.40 0067  02.08.2006

@<TRIPOS>MOLECULE
ASD07930168
  60   63    0    0    0
SMALL
NO_CHARGES


@<TRIPOS>ATOM
   1 C1            -0.1608     1.3558     0.6041 C.2     
   2 C2            -0.0387    -0.1095     0.4388 C.2     
   3 N3             0.8761     2.1556     0.1799 N.am    
   4 N4             1.1980    -0.6469     0.3101 N.am    
   5 C5             2.3659     0.2431     0.3755 C.3     
   6 C6             2.0534     1.5169    -0.4238 C.3     
   7 C7            -1.2799     1.8958     1.1594 C.2     
   8 C8            -1.3991     3.2819     1.3195 C.2     
   9 C9            -0.3784     4.0971     0.9136 C.2     
  10 C10            0.8131     3.4918     0.3135 C.2     
  11 O11           -1.0277    -0.8164     0.4194 O.2     
  12 O12            1.7380     4.1926    -0.0607 O.2     
  13 C13            0.3032     6.2654     1.8588 C.2     
  14 N14           -0.0865     7.5044     1.7310 N.2     
  15 C15           -1.1087     7.5620     0.8642 C.2     
  16 C16           -1.3671     6.3123     0.4347 C.2     
  17 N17           -0.4732     5.4836     1.0631 N.pl3   
  18 C18           -1.8418     8.8098     0.4441 C.3     
  19 C19            1.3682    -2.0880     0.1091 C.3     
  20 C20            0.8470    -2.4747    -1.2765 C.3     
  21 C21            0.5834    -2.8485     1.1798 C.3     
  22 O22           -0.5602    -2.2342    -1.3402 O.3     
  23 C23           -0.9615    -1.0650    -1.9058 C.ar    
  24 C24           -2.3107    -0.8254    -2.1220 C.ar    
  25 C25           -2.7171     0.3633    -2.6964 C.ar    
  26 C26           -1.7784     1.3154    -3.0568 C.ar    
  27 C27           -0.4317     1.0776    -2.8416 C.ar    
  28 C28           -0.0229    -0.1082    -2.2620 C.ar    
  29 C29           -3.3325    -1.8617    -1.7308 C.3     
  30 C30           -3.1619    -3.1030    -2.6089 C.3     
  31 C31           -3.1345    -2.2444    -0.2627 C.3     
  32 O32           -4.6457    -1.3276    -1.9109 O.3     
  33 F33           -1.9305    -3.7056    -2.3304 F       
  34 F34           -4.1949    -4.0081    -2.3426 F       
  35 F35           -3.2045    -2.7302    -3.9567 F       
  36 F36           -2.1772     2.4772    -3.6193 F       
  37 H37            2.5704     0.5034     1.4140 H       
  38 H38            3.2323    -0.2573    -0.0570 H       
  39 H39            1.8406     1.2579    -1.4610 H       
  40 H40            2.9042     2.1969    -0.3805 H       
  41 H41           -2.0837     1.2492     1.4792 H       
  42 H42           -2.2904     3.7040     1.7599 H       
  43 H43            1.1102     5.9200     2.4879 H       
  44 H44           -2.1315     6.0188    -0.2695 H       
  45 H45           -1.3552     9.2397    -0.4314 H       
  46 H46           -2.8742     8.5599     0.1999 H       
  47 H47           -1.8261     9.5325     1.2600 H       
  48 H48            2.4254    -2.3429     0.1837 H       
  49 H49            1.3525    -1.8768    -2.0348 H       
  50 H50            1.0435    -3.5316    -1.4566 H       
  51 H51            0.6468    -3.9191     0.9850 H       
  52 H52            1.0047    -2.6322     2.1615 H       
  53 H53           -0.4606    -2.5361     1.1556 H       
  54 H54           -3.7674     0.5500    -2.8648 H       
  55 H55            0.2993     1.8210    -3.1232 H       
  56 H56            1.0275    -0.2917    -2.0905 H       
  57 H57           -3.3125    -1.3728     0.3671 H       
  58 H58           -3.8357    -3.0350     0.0044 H       
  59 H59           -2.1143    -2.5980    -0.1139 H       
  60 H60           -5.3554    -1.9417    -1.6779 H       
@<TRIPOS>BOND
   1    1    2 1
   2    1    3 1
   3    1    7 2
   4    2    4 am
   5    2   11 2
   6    3    6 1
   7    3   10 am
   8    4    5 1
   9    4   19 1
  10    5    6 1
  11    5   37 1
  12    5   38 1
  13    6   39 1
  14    6   40 1
  15    7    8 1
  16    7   41 1
  17    8    9 2
  18    8   42 1
  19    9   10 1
  20    9   17 1
  21   10   12 2
  22   13   14 2
  23   13   17 1
  24   13   43 1
  25   14   15 1
  26   15   16 2
  27   15   18 1
  28   16   17 1
  29   16   44 1
  30   18   45 1
  31   18   46 1
  32   18   47 1
  33   19   20 1
  34   19   21 1
  35   19   48 1
  36   20   22 1
  37   20   49 1
  38   20   50 1
  39   21   51 1
  40   21   52 1
  41   21   53 1
  42   22   23 1
  43   23   24 ar
  44   23   28 ar
  45   24   25 ar
  46   24   29 1
  47   25   26 ar
  48   25   54 1
  49   26   27 ar
  50   26   36 1
  51   27   28 ar
  52   27   55 1
  53   28   56 1
  54   29   30 1
  55   29   31 1
  56   29   32 1
  57   30   33 1
  58   30   34 1
  59   30   35 1
  60   31   57 1
  61   31   58 1
  62   31   59 1
  63   32   60 1

#	End of record

