#	Name: ASD04670002
#	Creating user name:	WinNT
#	Creation time:	15. 06. 2019 20:52

#	Modifying user name:	WinNT
#	Modification time:	15. 06. 2019 20:52

#	Program:	/corina/corina34_cracker 3.40 0067  02.08.2006

@<TRIPOS>MOLECULE
ASD04670002
  51   53    0    0    0
SMALL
NO_CHARGES


@<TRIPOS>ATOM
   1 O1            -0.0161     1.3381     0.0094 O.3     
   2 C2             0.0021    -0.0041     0.0020 C.2     
   3 O3             1.0565    -0.5939    -0.0112 O.2     
   4 C4            -1.2926    -0.7753     0.0102 C.3     
   5 C5            -0.9927    -2.2755    -0.0007 C.3     
   6 C6            -2.3072    -3.0585     0.0077 C.3     
   7 C7            -2.0157    -4.5309    -0.1269 C.2     
   8 O8            -2.3623    -5.2971     0.7407 O.2     
   9 O9            -1.3709    -4.9912    -1.2105 O.3     
  10 N10           -3.0134    -2.8136     1.2676 N.am    
  11 C11           -4.3527    -2.9524     1.3274 C.2     
  12 O12           -4.9748    -3.2810     0.3356 O.2     
  13 C13           -5.0639    -2.7059     2.5962 C.ar    
  14 C14           -6.4530    -2.8495     2.6598 C.ar    
  15 C15           -7.1135    -2.6187     3.8447 C.ar    
  16 C16           -6.3998    -2.2426     4.9794 C.ar    
  17 C17           -5.0164    -2.0987     4.9192 C.ar    
  18 C18           -4.3495    -2.3337     3.7387 C.ar    
  19 N19           -7.0702    -2.0097     6.1751 N.pl3   
  20 C20           -6.3207    -1.6138     7.3700 C.3     
  21 C21           -7.2744    -1.4249     8.5215 C.ar    
  22 C22           -7.4978    -2.4684     9.4107 C.ar    
  23 N23           -8.3304    -2.3194    10.4251 N.ar    
  24 C24           -8.9565    -1.1641    10.5945 C.ar    
  25 C25           -8.7286    -0.1087     9.6932 C.ar    
  26 N26           -7.8875    -0.2680     8.6815 N.ar    
  27 C27           -9.4472     1.1632     9.9174 C.2     
  28 O28           -9.2881     2.1112     9.1674 O.2     
  29 N29          -10.2783     1.2487    10.9651 N.2     
  30 C30          -10.4631     0.2359    11.7853 C.2     
  31 N31           -9.8353    -0.9602    11.6378 N.pl3   
  32 N32          -11.3257     0.3944    12.8330 N.pl3   
  33 H33            0.8394     1.7888     0.0037 H       
  34 H34           -1.8592    -0.5245     0.9070 H       
  35 H35           -1.8762    -0.5150    -0.8728 H       
  36 H36           -0.4261    -2.5263    -0.8975 H       
  37 H37           -0.4091    -2.5358     0.8824 H       
  38 H38           -2.9289    -2.7335    -0.8265 H       
  39 H39           -1.2066    -5.9432    -1.2521 H       
  40 H40           -2.5172    -2.5515     2.0588 H       
  41 H41           -7.0072    -3.1409     1.7798 H       
  42 H42           -8.1867    -2.7291     3.8945 H       
  43 H43           -4.4656    -1.8065     5.8010 H       
  44 H44           -3.2762    -2.2223     3.6927 H       
  45 H45           -8.0341    -2.1093     6.2180 H       
  46 H46           -5.5986    -2.3911     7.6200 H       
  47 H47           -5.7954    -0.6787     7.1761 H       
  48 H48           -6.9866    -3.4095     9.2712 H       
  49 H49          -10.0063    -1.6754    12.2704 H       
  50 H50          -11.7856     1.2391    12.9590 H       
  51 H51          -11.4782    -0.3377    13.4508 H       
@<TRIPOS>BOND
   1    1    2 1
   2    1   33 1
   3    2    3 2
   4    2    4 1
   5    4    5 1
   6    4   34 1
   7    4   35 1
   8    5    6 1
   9    5   36 1
  10    5   37 1
  11    6    7 1
  12    6   10 1
  13    6   38 1
  14    7    8 2
  15    7    9 1
  16    9   39 1
  17   10   11 am
  18   10   40 1
  19   11   12 2
  20   11   13 1
  21   13   14 ar
  22   13   18 ar
  23   14   15 ar
  24   14   41 1
  25   15   16 ar
  26   15   42 1
  27   16   17 ar
  28   16   19 1
  29   17   18 ar
  30   17   43 1
  31   18   44 1
  32   19   20 1
  33   19   45 1
  34   20   21 1
  35   20   46 1
  36   20   47 1
  37   21   22 ar
  38   21   26 ar
  39   22   23 ar
  40   22   48 1
  41   23   24 ar
  42   24   25 ar
  43   24   31 1
  44   25   26 ar
  45   25   27 1
  46   27   28 2
  47   27   29 1
  48   29   30 2
  49   30   31 1
  50   30   32 1
  51   31   49 1
  52   32   50 1
  53   32   51 1

#	End of record

