#	Name: ASD00990058
#	Creating user name:	WinNT
#	Creation time:	15. 06. 2019 18:54

#	Modifying user name:	WinNT
#	Modification time:	15. 06. 2019 18:54

#	Program:	/corina/corina34_cracker 3.40 0067  02.08.2006

@<TRIPOS>MOLECULE
ASD00990058
  45   46    0    0    0
SMALL
NO_CHARGES


@<TRIPOS>ATOM
   1 C1            -0.0170     1.4004     0.0097 C.ar    
   2 C2             0.0021    -0.0041     0.0020 C.ar    
   3 C3            -1.1902    -0.7149     0.0096 C.ar    
   4 C4            -2.3918    -0.0408     0.0247 C.ar    
   5 C5            -2.4188     1.3512     0.0324 C.ar    
   6 C6            -1.2421     2.0728     0.0301 C.ar    
   7 N7             1.2763     1.8141    -0.0004 N.2     
   8 C8             2.0666     0.7805    -0.0135 C.2     
   9 N9             1.3361    -0.3666    -0.0127 N.pl3   
  10 C10            3.5722     0.8451    -0.0283 C.3     
  11 N11            4.0410     0.9938    -1.4082 N.am    
  12 C12            4.2225     2.3302    -1.9803 C.3     
  13 O13            4.7364     0.0376    -3.4197 O.3     
  14 C14            5.0014    -1.1825    -4.1610 C.3     
  15 C15            3.7201    -2.0139    -4.2494 C.3     
  16 C16            5.4784    -0.8291    -5.5711 C.3     
  17 C17            6.0848    -1.9900    -3.4434 C.3     
  18 C18            4.3055    -0.0990    -2.1515 C.2     
  19 O19            4.1550    -1.2075    -1.6771 O.2     
  20 O20           -3.6116     2.0038     0.0473 O.3     
  21 C21           -6.0262     2.1021     0.0709 C.3     
  22 C22           -4.7918     1.1982     0.0542 C.3     
  23 H23           -1.1761    -1.7948     0.0033 H       
  24 H24           -3.3184    -0.5956     0.0302 H       
  25 H25           -1.2681     3.1524     0.0362 H       
  26 H26            1.6861    -1.2712    -0.0206 H       
  27 H27            3.9051     1.6985     0.5625 H       
  28 H28            3.9794    -0.0722     0.3970 H       
  29 H29            5.2401     2.6715    -1.7906 H       
  30 H30            4.0464     2.2923    -3.0553 H       
  31 H31            3.5159     3.0212    -1.5205 H       
  32 H32            2.9482    -1.4387    -4.7606 H       
  33 H33            3.9190    -2.9299    -4.8059 H       
  34 H34            3.3802    -2.2657    -3.2448 H       
  35 H35            6.3913    -0.2368    -5.5081 H       
  36 H36            5.6774    -1.7451    -6.1275 H       
  37 H37            4.7066    -0.2538    -6.0823 H       
  38 H38            5.7450    -2.2417    -2.4388 H       
  39 H39            6.2838    -2.9059    -3.9998 H       
  40 H40            6.9977    -1.3976    -3.3804 H       
  41 H41           -6.0072     2.7265     0.9641 H       
  42 H42           -6.0242     2.7361    -0.8158 H       
  43 H43           -6.9264     1.4876     0.0762 H       
  44 H44           -4.8108     0.5738    -0.8390 H       
  45 H45           -4.7938     0.5642     0.9409 H       
@<TRIPOS>BOND
   1    1    2 ar
   2    1    7 1
   3    1    6 ar
   4    2    3 ar
   5    2    9 1
   6    3    4 ar
   7    3   23 1
   8    4    5 ar
   9    4   24 1
  10    5    6 ar
  11    5   20 1
  12    6   25 1
  13    7    8 2
  14    8    9 1
  15    8   10 1
  16    9   26 1
  17   10   11 1
  18   10   27 1
  19   10   28 1
  20   11   12 1
  21   11   18 am
  22   12   29 1
  23   12   30 1
  24   12   31 1
  25   13   14 1
  26   13   18 1
  27   14   15 1
  28   14   16 1
  29   14   17 1
  30   15   32 1
  31   15   33 1
  32   15   34 1
  33   16   35 1
  34   16   36 1
  35   16   37 1
  36   17   38 1
  37   17   39 1
  38   17   40 1
  39   18   19 2
  40   20   22 1
  41   21   22 1
  42   21   41 1
  43   21   42 1
  44   21   43 1
  45   22   44 1
  46   22   45 1

#	End of record

