#	Name: ASD04220054
#	Creating user name:	WinNT
#	Creation time:	15. 06. 2019 20:48

#	Modifying user name:	WinNT
#	Modification time:	15. 06. 2019 20:48

#	Program:	/corina/corina34_cracker 3.40 0067  02.08.2006

@<TRIPOS>MOLECULE
ASD04220054
 201  207    0    0    0
SMALL
NO_CHARGES


@<TRIPOS>ATOM
   1 C1            10.7773    -5.5298     7.1891 C.3     
   2 C2             7.9991    -5.1368     5.6813 C.3     
   3 O3             9.6961    -6.4012     6.8515 O.3     
   4 O4             8.5223    -3.8965     6.1608 O.3     
   5 C5             6.3365     1.7254     5.8296 C.3     
   6 C6             6.7369    -0.5890     7.9812 C.3     
   7 O7             7.3897     0.8023     6.1141 O.3     
   8 C8             4.5470    -0.5213    10.3121 C.3     
   9 C9             2.5079    -1.4879     9.5039 C.3     
  10 C10            4.3547    -0.3081    11.8167 C.3     
  11 C11            3.5029    -1.5853    13.6575 C.3     
  12 C12            3.9432     1.1446    12.0699 C.3     
  13 O13            7.9943     4.8427     9.8158 O.2     
  14 O14            3.3055    -0.3097     9.6368 O.3     
  15 O15            3.3329    -1.1844    12.2965 O.3     
  16 O16            3.8165     1.3658    13.4759 O.3     
  17 C17            4.7338     7.0017    15.4477 C.3     
  18 C18            2.6721     4.6069    15.8479 C.3     
  19 O19            4.8678     5.5857    15.5857 O.3     
  20 O20            2.1001     5.8652    16.2108 O.3     
  21 C21           -1.3977     5.7285    17.5699 C.3     
  22 C22           -1.2310     6.9426    18.4874 C.3     
  23 O23           -0.4425     6.9162    15.6911 O.3     
  24 O24           -1.1068     7.8738    13.6420 O.2     
  25 O25           -0.8505     5.4041    13.9292 O.2     
  26 O26           -2.6999     6.5783    14.7999 O.3     
  27 O27           -2.6779     5.7802    16.9371 O.3     
  28 O28           -4.8893     4.9756    16.7977 O.2     
  29 O29           -3.1305     3.7941    18.1236 O.2     
  30 O30           -4.1560     5.7730    18.8914 O.3     
  31 O31           -2.2192     6.8998    19.5188 O.3     
  32 S32           -1.2324     6.6853    14.4108 S.o2    
  33 S33           -3.7560     4.9809    17.6549 S.o2    
  34 C34           -1.9716     9.5035    24.9641 C.3     
  35 C35           -3.6531     9.6993    22.2659 C.3     
  36 O36           -2.5112     8.5413    24.0557 O.3     
  37 O37           -3.7372    10.9029    23.0316 O.3     
  38 C38           -3.1080    14.1559    21.0452 C.3     
  39 C39           -6.1447    13.4708    21.7239 C.3     
  40 C40           -6.4759    14.0549    23.0997 C.3     
  41 O41           -3.7682    13.5658    22.1667 O.3     
  42 O42           -5.9991    14.5313    20.7773 O.3     
  43 O43           -6.8922    15.7557    18.9716 O.2     
  44 O44           -7.8753    13.5805    19.7129 O.2     
  45 O45           -8.2099    15.5786    20.9183 O.3     
  46 S46           -7.2642    14.8338    19.9870 S.o2    
  47 C47            7.9082    -7.1760     3.6417 C.3     
  48 C48            6.8206    -6.1164     3.8365 C.3     
  49 O49            7.4009    -4.9378     4.3989 O.3     
  50 C50            6.1889    -5.7789     2.4845 C.3     
  51 C51            8.5764    -7.4644     4.9895 C.3     
  52 O52            9.6421    -8.3983     4.8046 O.3     
  53 C53            9.2452    -9.7654     4.9298 C.3     
  54 C54            9.1341    -6.1570     5.5606 C.3     
  55 C55            7.5209    -2.9316     6.4896 C.3     
  56 C56            7.2989    -2.9204     8.0043 C.3     
  57 O57            6.3394    -1.9149     8.3365 O.3     
  58 C58            6.7812    -4.2881     8.4542 C.3     
  59 C59            7.9813    -1.5419     6.0387 C.3     
  60 O60            8.1203    -1.5226     4.6166 O.3     
  61 C61            9.1210    -0.6191     4.1427 C.3     
  62 C62            6.9363    -0.5065     6.4655 C.3     
  63 O63            5.7227     0.3354     8.3795 O.3     
  64 C64            5.5881     0.4763     9.7951 C.3     
  65 C65            5.1289     1.8987    10.1264 C.3     
  66 O66            4.9393     2.0201    11.5376 O.3     
  67 C67            6.1922     2.8981     9.6666 C.3     
  68 O68            5.7191     4.2294     9.8810 O.3     
  69 S69            6.7018     5.3115     9.4570 S.o2    
  70 O70            6.1659     6.5437     9.9193 O.2     
  71 O71            6.6742     5.3743     7.9365 O.3     
  72 C72            3.3148     2.6594    13.8179 C.3     
  73 C73            2.1504     2.5131    14.8010 C.3     
  74 O74            1.6881     3.8093    15.1861 O.3     
  75 C75            1.0278     1.7547    14.1412 C.2     
  76 O76           -0.0213     2.3079    13.9104 O.2     
  77 O77            1.1932     0.4645    13.8098 O.3     
  78 C78            4.4271     3.4827    14.4747 C.3     
  79 O79            5.4872     3.6866    13.5385 O.3     
  80 C80            6.7781     3.8073    14.1394 C.3     
  81 C81            3.8573     4.8373    14.9067 C.3     
  82 C82            1.0683     5.7723    17.1951 C.3     
  83 C83            1.1397     6.9848    18.1270 C.3     
  84 O84            0.0717     6.9193    19.0743 O.3     
  85 C85            2.4789     6.9815    18.8669 C.3     
  86 O86            2.5911     8.1689    19.6540 O.3     
  87 S87            3.8920     8.2717    20.4373 S.o2    
  88 O88            3.7513     9.3891    21.3039 O.2     
  89 O89            4.1860     6.9609    20.9007 O.2     
  90 O90            4.9881     8.6327    19.4451 O.3     
  91 C91           -0.2983     5.7495    16.5035 C.3     
  92 C92           -2.2540     8.0692    20.3394 C.3     
  93 C93           -3.5082     8.8848    20.0149 C.3     
  94 O94           -3.5707    10.0231    20.8765 O.3     
  95 C95           -3.4526     9.3429    18.5802 C.2     
  96 O96           -3.3530    10.5197    18.3253 O.2     
  97 O97           -3.5136     8.4435    17.5857 O.3     
  98 C98           -2.2890     7.6584    21.8146 C.3     
  99 O99           -1.0872     6.9594    22.1449 O.3     
 100 C100          -1.2468     5.9850    23.1779 C.3     
 101 C101          -2.4047     8.9164    22.6809 C.3     
 102 C102          -4.9773    11.5981    22.8874 C.3     
 103 C103          -5.3536    12.2545    24.2182 C.3     
 104 O104          -6.5640    12.9969    24.0562 O.3     
 105 C105          -5.5568    11.1730    25.2812 C.3     
 106 O106          -5.7851    11.7892    26.5501 O.3     
 107 S107          -6.0012    10.8016    27.6879 S.o2    
 108 O108          -6.4078    11.5685    28.8130 O.2     
 109 O109          -6.7746     9.7362    27.1530 O.2     
 110 O110          -4.6421    10.2127    28.0376 O.3     
 111 C111          -4.8346    12.6822    21.8146 C.3     
 112 H112          11.1484    -5.7795     8.1831 H       
 113 H113          11.5800    -5.6481     6.4612 H       
 114 H114          10.4281    -4.4973     7.1803 H       
 115 H115           7.2486    -5.5086     6.3788 H       
 116 H116           5.6988     1.8308     6.7073 H       
 117 H117           6.7628     2.6948     5.5718 H       
 118 H118           5.7445     1.3546     4.9929 H       
 119 H119           7.6717    -0.3426     8.4847 H       
 120 H120           4.8927    -1.5388    10.1292 H       
 121 H121           1.5832    -1.2436     8.9810 H       
 122 H122           3.0591    -2.2376     8.9362 H       
 123 H123           2.2731    -1.8812    10.4930 H       
 124 H124           5.2894    -0.5179    12.3367 H       
 125 H125           4.4527    -2.1088    13.7662 H       
 126 H126           3.4983    -0.7041    14.2991 H       
 127 H127           2.6874    -2.2487    13.9454 H       
 128 H128           2.9880     1.3419    11.5833 H       
 129 H129           5.5380     7.4975    15.9913 H       
 130 H130           4.7885     7.2707    14.3928 H       
 131 H131           3.7726     7.3170    15.8537 H       
 132 H132           3.0148     4.0911    16.7448 H       
 133 H133          -1.3186     4.8141    18.1579 H       
 134 H134          -1.3517     7.8568    17.9061 H       
 135 H135          -3.2952     6.4296    14.0525 H       
 136 H136          -4.8426     5.3496    19.4247 H       
 137 H137          -0.9125     9.6496    24.7517 H       
 138 H138          -2.4997    10.4498    24.8470 H       
 139 H139          -2.0911     9.1448    25.9865 H       
 140 H140          -4.5399     9.0915    22.4456 H       
 141 H141          -3.8261    14.7341    20.4638 H       
 142 H142          -2.3120    14.8125    21.3963 H       
 143 H143          -2.6822    13.3711    20.4199 H       
 144 H144          -6.9491    12.8072    21.4066 H       
 145 H145          -5.6913    14.7502    23.3979 H       
 146 H146          -7.4292    14.5813    23.0512 H       
 147 H147          -9.0529    15.8209    20.5112 H       
 148 H148           7.4602    -8.0909     3.2540 H       
 149 H149           8.6537    -6.8074     2.9370 H       
 150 H150           6.0546    -6.5012     4.5098 H       
 151 H151           5.7472    -6.6782     2.0552 H       
 152 H152           5.4146    -5.0245     2.6234 H       
 153 H153           6.9550    -5.3936     1.8116 H       
 154 H154           7.8420    -7.8810     5.6788 H       
 155 H155           8.4849    -9.9928     4.1826 H       
 156 H156          10.1103   -10.4104     4.7759 H       
 157 H157           8.8377    -9.9356     5.9263 H       
 158 H158           9.9049    -5.7675     4.8955 H       
 159 H159           6.5885    -3.1884     5.9867 H       
 160 H160           8.2410    -2.7045     8.5082 H       
 161 H161           7.5265    -5.0509     8.2287 H       
 162 H162           6.5929    -4.2702     9.5277 H       
 163 H163           5.8554    -4.5176     7.9267 H       
 164 H164           8.9396    -1.3072     6.5020 H       
 165 H165           9.1645    -0.6634     3.0545 H       
 166 H166           8.8723     0.3950     4.4554 H       
 167 H167          10.0894    -0.8998     4.5568 H       
 168 H168           5.9916    -0.7121     5.9621 H       
 169 H169           6.5480     0.2817    10.2734 H       
 170 H170           4.1894     2.1059     9.6142 H       
 171 H171           7.1083     2.7419    10.2363 H       
 172 H172           6.3946     2.7509     8.6057 H       
 173 H173           7.2692     6.0368     7.5594 H       
 174 H174           2.9691     3.1659    12.9167 H       
 175 H175           2.4865     1.9699    15.6842 H       
 176 H176           0.4449     0.0199    13.3887 H       
 177 H177           4.8079     2.9510    15.3466 H       
 178 H178           7.5276     3.9599    13.3628 H       
 179 H179           6.7834     4.6574    14.8215 H       
 180 H180           7.0081     2.8965    14.6923 H       
 181 H181           3.5231     5.3898    14.0286 H       
 182 H182           1.1993     4.8588    17.7751 H       
 183 H183           1.0502     7.8995    17.5410 H       
 184 H184           2.5327     6.1083    19.5170 H       
 185 H185           3.2935     6.9468    18.1435 H       
 186 H186           5.8647     8.7235    19.8431 H       
 187 H187          -0.3780     4.8589    15.8800 H       
 188 H188          -1.3671     8.6738    20.1496 H       
 189 H189          -4.3930     8.2662    20.1650 H       
 190 H190          -3.4742     8.7851    16.6819 H       
 191 H191          -3.1479     7.0113    21.9926 H       
 192 H192          -1.5949     6.4738    24.0878 H       
 193 H193          -1.9769     5.2389    22.8641 H       
 194 H194          -0.2902     5.4989    23.3698 H       
 195 H195          -1.5210     9.5389    22.5406 H       
 196 H196          -5.7571    10.8950    22.5946 H       
 197 H197          -4.5543    12.9263    24.5311 H       
 198 H198          -6.4175    10.5593    25.0152 H       
 199 H199          -4.6668    10.5462    25.3365 H       
 200 H200          -4.6667     9.5663    28.7565 H       
 201 H201          -4.6209    12.2182    20.8517 H       
@<TRIPOS>BOND
   1    1    3 1
   2    1  112 1
   3    1  113 1
   4    1  114 1
   5    2    4 1
   6    2   49 1
   7    2   54 1
   8    2  115 1
   9    3   54 1
  10    4   55 1
  11    5    7 1
  12    5  116 1
  13    5  117 1
  14    5  118 1
  15    6   57 1
  16    6   62 1
  17    6   63 1
  18    6  119 1
  19    7   62 1
  20    8   10 1
  21    8   14 1
  22    8   64 1
  23    8  120 1
  24    9   14 1
  25    9  121 1
  26    9  122 1
  27    9  123 1
  28   10   12 1
  29   10   15 1
  30   10  124 1
  31   11   15 1
  32   11  125 1
  33   11  126 1
  34   11  127 1
  35   12   16 1
  36   12   66 1
  37   12  128 1
  38   13   69 2
  39   16   72 1
  40   17   19 1
  41   17  129 1
  42   17  130 1
  43   17  131 1
  44   18   20 1
  45   18   74 1
  46   18   81 1
  47   18  132 1
  48   19   81 1
  49   20   82 1
  50   21   22 1
  51   21   27 1
  52   21   91 1
  53   21  133 1
  54   22   31 1
  55   22   84 1
  56   22  134 1
  57   23   32 1
  58   23   91 1
  59   24   32 2
  60   25   32 2
  61   26   32 1
  62   26  135 1
  63   27   33 1
  64   28   33 2
  65   29   33 2
  66   30   33 1
  67   30  136 1
  68   31   92 1
  69   34   36 1
  70   34  137 1
  71   34  138 1
  72   34  139 1
  73   35   37 1
  74   35   94 1
  75   35  101 1
  76   35  140 1
  77   36  101 1
  78   37  102 1
  79   38   41 1
  80   38  141 1
  81   38  142 1
  82   38  143 1
  83   39   40 1
  84   39   42 1
  85   39  111 1
  86   39  144 1
  87   40  104 1
  88   40  145 1
  89   40  146 1
  90   41  111 1
  91   42   46 1
  92   43   46 2
  93   44   46 2
  94   45   46 1
  95   45  147 1
  96   47   48 1
  97   47   51 1
  98   47  148 1
  99   47  149 1
 100   48   49 1
 101   48   50 1
 102   48  150 1
 103   50  151 1
 104   50  152 1
 105   50  153 1
 106   51   52 1
 107   51   54 1
 108   51  154 1
 109   52   53 1
 110   53  155 1
 111   53  156 1
 112   53  157 1
 113   54  158 1
 114   55   56 1
 115   55   59 1
 116   55  159 1
 117   56   57 1
 118   56   58 1
 119   56  160 1
 120   58  161 1
 121   58  162 1
 122   58  163 1
 123   59   60 1
 124   59   62 1
 125   59  164 1
 126   60   61 1
 127   61  165 1
 128   61  166 1
 129   61  167 1
 130   62  168 1
 131   63   64 1
 132   64   65 1
 133   64  169 1
 134   65   66 1
 135   65   67 1
 136   65  170 1
 137   67   68 1
 138   67  171 1
 139   67  172 1
 140   68   69 1
 141   69   70 2
 142   69   71 1
 143   71  173 1
 144   72   73 1
 145   72   78 1
 146   72  174 1
 147   73   74 1
 148   73   75 1
 149   73  175 1
 150   75   76 2
 151   75   77 1
 152   77  176 1
 153   78   79 1
 154   78   81 1
 155   78  177 1
 156   79   80 1
 157   80  178 1
 158   80  179 1
 159   80  180 1
 160   81  181 1
 161   82   83 1
 162   82   91 1
 163   82  182 1
 164   83   84 1
 165   83   85 1
 166   83  183 1
 167   85   86 1
 168   85  184 1
 169   85  185 1
 170   86   87 1
 171   87   88 2
 172   87   89 2
 173   87   90 1
 174   90  186 1
 175   91  187 1
 176   92   93 1
 177   92   98 1
 178   92  188 1
 179   93   94 1
 180   93   95 1
 181   93  189 1
 182   95   96 2
 183   95   97 1
 184   97  190 1
 185   98   99 1
 186   98  101 1
 187   98  191 1
 188   99  100 1
 189  100  192 1
 190  100  193 1
 191  100  194 1
 192  101  195 1
 193  102  103 1
 194  102  111 1
 195  102  196 1
 196  103  104 1
 197  103  105 1
 198  103  197 1
 199  105  106 1
 200  105  198 1
 201  105  199 1
 202  106  107 1
 203  107  108 2
 204  107  109 2
 205  107  110 1
 206  110  200 1
 207  111  201 1

#	End of record

