#	Name: ASD03430351
#	Creating user name:	WinNT
#	Creation time:	15. 06. 2019 20:40

#	Modifying user name:	WinNT
#	Modification time:	15. 06. 2019 20:40

#	Program:	/corina/corina34_cracker 3.40 0067  02.08.2006

@<TRIPOS>MOLECULE
ASD03430351
  56   62    0    0    0
SMALL
NO_CHARGES


@<TRIPOS>ATOM
   1 C1            -0.0181     1.4804     0.0102 C.ar    
   2 C2             0.0021    -0.0041     0.0020 C.ar    
   3 C3             1.2412    -0.6657    -0.0113 C.ar    
   4 C4             2.4087     0.0427    -0.0010 C.ar    
   5 C5             2.3988     1.4572    -0.0028 C.ar    
   6 C6             1.2553     2.1787     0.0018 C.ar    
   7 O7             3.4941    -0.7882     0.0212 O.3     
   8 C8             1.6111    -2.1261    -0.0520 C.3     
   9 C9             3.0985    -2.0978    -0.4285 C.3     
  10 C10            0.5068    -3.8648     0.9847 C.ar    
  11 C11            1.3764    -2.8127     1.2603 C.ar    
  12 C12            0.7940    -2.8897    -1.0537 C.2     
  13 N13            0.1868    -3.8840    -0.3751 N.am    
  14 O14            0.6988    -2.6576    -2.2404 O.2     
  15 C15            1.8279    -2.5958     2.5430 C.ar    
  16 C16            1.4181    -3.4250     3.5718 C.ar    
  17 C17            0.5543    -4.4727     3.3096 C.ar    
  18 C18            0.1000    -4.6950     2.0265 C.ar    
  19 C19           -0.7039    -4.8701    -0.9919 C.3     
  20 C20           -2.1214    -4.3599    -0.9537 C.ar    
  21 C21           -2.6362    -3.6936    -2.0503 C.ar    
  22 C22           -3.9402    -3.2279    -2.0078 C.ar    
  23 C23           -4.6850    -3.4515    -0.8540 C.ar    
  24 C24           -4.0988    -4.1282     0.2054 C.ar    
  25 N25           -2.8557    -4.5597     0.1229 N.ar    
  26 O26           -5.9683    -3.0127    -0.7661 O.3     
  27 C27           -6.6642    -3.2825     0.4525 C.3     
  28 C28           -8.0619    -2.7258     0.3666 C.ar    
  29 C29           -9.0894    -3.5101    -0.1236 C.ar    
  30 C30          -10.3715    -2.9994    -0.2024 C.ar    
  31 C31          -10.6263    -1.7046     0.2094 C.ar    
  32 C32           -9.5991    -0.9207     0.7005 C.ar    
  33 C33           -8.3178    -1.4328     0.7833 C.ar    
  34 N34           -1.2739    -0.3086     0.0098 N.2     
  35 O35           -1.9259     0.7162     0.0232 O.3     
  36 N36           -1.2961     1.7555     0.0289 N.2     
  37 H37            3.3427     1.9820    -0.0080 H       
  38 H38            1.2883     3.2582    -0.0005 H       
  39 H39            3.2295    -2.1957    -1.5062 H       
  40 H40            3.6494    -2.8747     0.1016 H       
  41 H41            2.5030    -1.7776     2.7461 H       
  42 H42            1.7718    -3.2543     4.5778 H       
  43 H43            0.2343    -5.1198     4.1129 H       
  44 H44           -0.5733    -5.5159     1.8287 H       
  45 H45           -0.4042    -5.0331    -2.0271 H       
  46 H46           -0.6411    -5.8099    -0.4432 H       
  47 H47           -2.0287    -3.5376    -2.9295 H       
  48 H48           -4.3682    -2.7038    -2.8496 H       
  49 H49           -4.6680    -4.3071     1.1057 H       
  50 H50           -6.7113    -4.3596     0.6131 H       
  51 H51           -6.1369    -2.8139     1.2834 H       
  52 H52           -8.8903    -4.5216    -0.4453 H       
  53 H53          -11.1741    -3.6119    -0.5861 H       
  54 H54          -11.6279    -1.3054     0.1472 H       
  55 H55           -9.7981     0.0909     1.0219 H       
  56 H56           -7.5152    -0.8204     1.1669 H       
@<TRIPOS>BOND
   1    1    2 ar
   2    1    6 ar
   3    1   36 2
   4    2    3 ar
   5    2   34 2
   6    3    4 ar
   7    3    8 1
   8    4    5 ar
   9    4    7 1
  10    5    6 ar
  11    5   37 1
  12    6   38 1
  13    7    9 1
  14    8    9 1
  15    8   11 1
  16    8   12 1
  17    9   39 1
  18    9   40 1
  19   10   11 ar
  20   10   13 1
  21   10   18 ar
  22   11   15 ar
  23   12   13 am
  24   12   14 2
  25   13   19 1
  26   15   16 ar
  27   15   41 1
  28   16   17 ar
  29   16   42 1
  30   17   18 ar
  31   17   43 1
  32   18   44 1
  33   19   20 1
  34   19   45 1
  35   19   46 1
  36   20   21 ar
  37   20   25 ar
  38   21   22 ar
  39   21   47 1
  40   22   23 ar
  41   22   48 1
  42   23   24 ar
  43   23   26 1
  44   24   25 ar
  45   24   49 1
  46   26   27 1
  47   27   28 1
  48   27   50 1
  49   27   51 1
  50   28   29 ar
  51   28   33 ar
  52   29   30 ar
  53   29   52 1
  54   30   31 ar
  55   30   53 1
  56   31   32 ar
  57   31   54 1
  58   32   33 ar
  59   32   55 1
  60   33   56 1
  61   34   35 1
  62   35   36 1

#	End of record

