#	Name: ASD03740119
#	Creating user name:	WinNT
#	Creation time:	15. 06. 2019 20:46

#	Modifying user name:	WinNT
#	Modification time:	15. 06. 2019 20:46

#	Program:	/corina/corina34_cracker 3.40 0067  02.08.2006

@<TRIPOS>MOLECULE
ASD03740119
  32   34    0    0    0
SMALL
NO_CHARGES


@<TRIPOS>ATOM
   1 C1            -0.0167     1.3815     0.0096 C.ar    
   2 C2             0.0021    -0.0041     0.0020 C.ar    
   3 C3             1.2003    -0.6897    -0.0132 C.ar    
   4 C4             2.3987     0.0098    -0.0209 C.ar    
   5 C5             2.3803     1.4148    -0.0132 C.ar    
   6 C6             1.1644     2.0940     0.0022 C.ar    
   7 N7             3.7265    -0.3879    -0.0358 N.pl3   
   8 N8             4.5509     0.7417    -0.0376 N.am    
   9 C9             3.7874     1.8530    -0.0243 C.2     
  10 C10            4.1938    -1.7764    -0.0477 C.3     
  11 C11            4.3426    -2.2520    -1.4943 C.3     
  12 C12            5.5402    -1.5454    -2.1767 C.3     
  13 O13            4.1854     3.0020    -0.0219 O.2     
  14 C14            4.7133    -3.7489    -1.5350 C.3     
  15 C15            5.7108    -3.9233    -2.6936 C.3     
  16 C16            5.9115    -2.5263    -3.3164 C.3     
  17 H17           -0.9607     1.9061     0.0170 H       
  18 H18           -0.9285    -0.5522     0.0084 H       
  19 H19            1.2050    -1.7697    -0.0186 H       
  20 H20            1.1464     3.1738     0.0078 H       
  21 H21            5.5207     0.7279    -0.0470 H       
  22 H22            5.1581    -1.8395     0.4566 H       
  23 H23            3.4711    -2.4074     0.4697 H       
  24 H24            3.4229    -2.0714    -2.0508 H       
  25 H25            5.2390    -0.5792    -2.5815 H       
  26 H26            6.3701    -1.4316    -1.4793 H       
  27 H27            5.1781    -4.0442    -0.5944 H       
  28 H28            3.8219    -4.3495    -1.7162 H       
  29 H29            6.6598    -4.3033    -2.3152 H       
  30 H30            5.3035    -4.6086    -3.4370 H       
  31 H31            5.2465    -2.3897    -4.1691 H       
  32 H32            6.9504    -2.3877    -3.6156 H       
@<TRIPOS>BOND
   1    1    2 ar
   2    1    6 ar
   3    1   17 1
   4    2    3 ar
   5    2   18 1
   6    3    4 ar
   7    3   19 1
   8    4    5 ar
   9    4    7 1
  10    5    6 ar
  11    5    9 1
  12    6   20 1
  13    7    8 1
  14    7   10 1
  15    8    9 am
  16    8   21 1
  17    9   13 2
  18   10   11 1
  19   10   22 1
  20   10   23 1
  21   11   14 1
  22   11   12 1
  23   11   24 1
  24   12   16 1
  25   12   25 1
  26   12   26 1
  27   14   15 1
  28   14   27 1
  29   14   28 1
  30   15   16 1
  31   15   29 1
  32   15   30 1
  33   16   31 1
  34   16   32 1

#	End of record

