#	Name: ASD03092992
#	Creating user name:	WinNT
#	Creation time:	15. 06. 2019 20:33

#	Modifying user name:	WinNT
#	Modification time:	15. 06. 2019 20:33

#	Program:	/corina/corina34_cracker 3.40 0067  02.08.2006

@<TRIPOS>MOLECULE
ASD03092992
  41   43    0    0    0
SMALL
NO_CHARGES


@<TRIPOS>ATOM
   1 C1            -0.0187     1.5258     0.0104 C.3     
   2 C2             0.0021    -0.0041     0.0020 C.3     
   3 C3             0.7182    -0.4975    -1.2568 C.3     
   4 C4             0.7309    -0.5033     1.2229 C.ar    
   5 C5             1.8104     0.2003     1.7330 C.ar    
   6 C6             2.4497    -0.2975     2.8577 C.ar    
   7 N7             2.0112    -1.4203     3.4033 N.ar    
   8 C8             0.9809    -2.0628     2.8904 C.ar    
   9 N9             0.3454    -1.6167     1.8257 N.ar    
  10 C10            0.5133    -3.3384     3.5427 C.3     
  11 H11           -0.5355    -3.5898     3.3853 H       
  12 C12            1.1348    -3.7118     4.8900 C.3     
  13 C13            1.5117    -4.4945     3.6296 C.3     
  14 H14            2.5066    -4.3326     3.2150 H       
  15 C15            0.9696    -5.8938     3.4916 C.ar    
  16 C16            0.0218    -6.3591     4.3839 C.ar    
  17 C17           -0.4755    -7.6426     4.2572 C.ar    
  18 C18           -0.0253    -8.4608     3.2380 C.ar    
  19 C19            0.9218    -7.9953     2.3452 C.ar    
  20 C20            1.4159    -6.7102     2.4692 C.ar    
  21 S21           -0.6583   -10.0973     3.0773 S.o2    
  22 N22           -1.9866   -10.0145     2.0918 N.am    
  23 O23            0.3232   -10.8392     2.3663 O.2     
  24 O24           -1.1351   -10.4712     4.3627 O.2     
  25 H25            1.0039     1.9031     0.0027 H       
  26 H26           -0.5459     1.8868    -0.8726 H       
  27 H27           -0.5289     1.8773     0.9072 H       
  28 H28           -1.0205    -0.3814     0.0098 H       
  29 H29            1.7408    -0.1202    -1.2645 H       
  30 H30            0.7330    -1.5874    -1.2628 H       
  31 H31            0.1910    -0.1364    -2.1398 H       
  32 H32            2.1456     1.1142     1.2653 H       
  33 H33            3.2947     0.2240     3.2827 H       
  34 H34            1.8819    -3.0350     5.3046 H       
  35 H35            0.4950    -4.2094     5.6188 H       
  36 H36           -0.3299    -5.7198     5.1802 H       
  37 H37           -1.2154    -8.0063     4.9548 H       
  38 H38            1.2737    -8.6347     1.5491 H       
  39 H39            2.1530    -6.3452     1.7694 H       
  40 H40           -2.2685    -9.1605     1.7284 H       
  41 H41           -2.4827   -10.8201     1.8779 H       
@<TRIPOS>BOND
   1    1    2 1
   2    1   25 1
   3    1   26 1
   4    1   27 1
   5    2    3 1
   6    2    4 1
   7    2   28 1
   8    3   29 1
   9    3   30 1
  10    3   31 1
  11    4    9 ar
  12    4    5 ar
  13    5    6 ar
  14    5   32 1
  15    6    7 ar
  16    6   33 1
  17    7    8 ar
  18    8    9 ar
  19    8   10 1
  20   10   11 1
  21   10   13 1
  22   10   12 1
  23   12   13 1
  24   12   34 1
  25   12   35 1
  26   13   14 1
  27   13   15 1
  28   15   20 ar
  29   15   16 ar
  30   16   17 ar
  31   16   36 1
  32   17   18 ar
  33   17   37 1
  34   18   19 ar
  35   18   21 1
  36   19   20 ar
  37   19   38 1
  38   20   39 1
  39   21   22 am
  40   21   23 2
  41   21   24 2
  42   22   40 1
  43   22   41 1

#	End of record

