#	Name: ASD05740206
#	Creating user name:	WinNT
#	Creation time:	15. 06. 2019 21:03

#	Modifying user name:	WinNT
#	Modification time:	15. 06. 2019 21:03

#	Program:	/corina/corina34_cracker 3.40 0067  02.08.2006

@<TRIPOS>MOLECULE
ASD05740206
  64   68    0    0    0
SMALL
NO_CHARGES


@<TRIPOS>ATOM
   1 C1            -0.1206    -0.7417    -1.3321 C.3     
   2 N2             0.7708    -0.3446    -0.2394 N.pl3   
   3 C3             0.6885    -0.9890     1.0001 C.ar    
   4 C4             1.5334    -0.6126     2.0359 C.ar    
   5 C5             1.4522    -1.2485     3.2588 C.ar    
   6 C6             0.5260    -2.2648     3.4528 C.ar    
   7 C7            -0.3187    -2.6415     2.4169 C.ar    
   8 C8            -0.2420    -2.0012     1.1960 C.ar    
   9 N9             0.4439    -2.9102     4.6933 N.pl3   
  10 C10            0.6644    -2.2000     5.8572 C.ar    
  11 N11            0.8392    -0.8852     5.7802 N.ar    
  12 N12            0.6882    -2.8550     7.0086 N.ar    
  13 C13            0.8974    -2.2049     8.1461 C.ar    
  14 C14            1.0930    -0.8068     8.1024 C.ar    
  15 C15            1.0534    -0.1589     6.8626 C.ar    
  16 N16            0.9272    -2.8546     9.3530 N.am    
  17 C17            1.1401    -2.1797    10.4966 C.2     
  18 C18            1.3406    -0.7846    10.5098 C.2     
  19 C19            1.3240    -0.0809     9.3476 C.2     
  20 C20            0.7237    -4.3047     9.3976 C.3     
  21 O21            1.1598    -2.7912    11.5508 O.2     
  22 C22           -1.4526     0.0003    -1.2002 C.3     
  23 C23            2.0408    -5.0037     9.1791 C.ar    
  24 C24            2.0819    -6.3805     9.0645 C.ar    
  25 C25            3.2074    -4.2674     9.0877 C.ar    
  26 C26            3.2902    -7.0218     8.8641 C.ar    
  27 C27            4.4571    -6.2861     8.7778 C.ar    
  28 C28            4.4154    -4.9084     8.8873 C.ar    
  29 F29            1.1126    -8.5469     9.0942 F       
  30 F30            0.1709    -6.9035    10.3715 F       
  31 C31            0.8096    -7.1827     9.1585 C.3     
  32 F32           -0.0359    -6.8422     8.0972 F       
  33 N33           -2.3387    -0.3816    -2.3072 N.3     
  34 C34           -1.7603    -0.0069    -3.6039 C.3     
  35 C35           -0.4375    -0.7491    -3.8075 C.3     
  36 C36            0.5256    -0.3860    -2.6739 C.3     
  37 C37           -3.6751     0.2043    -2.1378 C.3     
  38 H38           -0.2966    -1.8164    -1.2858 H       
  39 H39            1.4180     0.3651    -0.3750 H       
  40 H40            2.2543     0.1773     1.8849 H       
  41 H41            2.1093    -0.9557     4.0644 H       
  42 H42           -1.0385    -3.4324     2.5676 H       
  43 H43           -0.8989    -2.2942     0.3904 H       
  44 H44            0.2323    -3.8559     4.7349 H       
  45 H45            1.1991     0.9088     6.7920 H       
  46 H46            1.5083    -0.2735    11.4464 H       
  47 H47            1.4768     0.9883     9.3452 H       
  48 H48            0.3205    -4.5853    10.3706 H       
  49 H49            0.0230    -4.5975     8.6158 H       
  50 H50           -1.9221    -0.2620    -0.2521 H       
  51 H51           -1.2742     1.0751    -1.2320 H       
  52 H52            3.1748    -3.1912     9.1724 H       
  53 H53            3.3223    -8.0976     8.7752 H       
  54 H54            5.4010    -6.7870     8.6216 H       
  55 H55            5.3272    -4.3336     8.8199 H       
  56 H56           -2.4533    -0.2744    -4.4016 H       
  57 H57           -1.5805     1.0680    -3.6244 H       
  58 H58           -0.6185    -1.8239    -3.8009 H       
  59 H59           -0.0007    -0.4589    -4.7631 H       
  60 H60            0.7374     0.6828    -2.7042 H       
  61 H61            1.4536    -0.9456    -2.7910 H       
  62 H62           -3.5949     1.2911    -2.1133 H       
  63 H63           -4.3110    -0.0944    -2.9712 H       
  64 H64           -4.1110    -0.1491    -1.2034 H       
@<TRIPOS>BOND
   1    1    2 1
   2    1   22 1
   3    1   36 1
   4    1   38 1
   5    2    3 1
   6    2   39 1
   7    3    4 ar
   8    3    8 ar
   9    4    5 ar
  10    4   40 1
  11    5    6 ar
  12    5   41 1
  13    6    7 ar
  14    6    9 1
  15    7    8 ar
  16    7   42 1
  17    8   43 1
  18    9   10 1
  19    9   44 1
  20   10   11 ar
  21   10   12 ar
  22   11   15 ar
  23   12   13 ar
  24   13   14 ar
  25   13   16 1
  26   14   15 ar
  27   14   19 1
  28   15   45 1
  29   16   17 am
  30   16   20 1
  31   17   18 1
  32   17   21 2
  33   18   19 2
  34   18   46 1
  35   19   47 1
  36   20   23 1
  37   20   48 1
  38   20   49 1
  39   22   33 1
  40   22   50 1
  41   22   51 1
  42   23   25 ar
  43   23   24 ar
  44   24   26 ar
  45   24   31 1
  46   25   28 ar
  47   25   52 1
  48   26   27 ar
  49   26   53 1
  50   27   28 ar
  51   27   54 1
  52   28   55 1
  53   29   31 1
  54   30   31 1
  55   31   32 1
  56   33   34 1
  57   33   37 1
  58   34   35 1
  59   34   56 1
  60   34   57 1
  61   35   36 1
  62   35   58 1
  63   35   59 1
  64   36   60 1
  65   36   61 1
  66   37   62 1
  67   37   63 1
  68   37   64 1

#	End of record

