#	Name: ASD04910430
#	Creating user name:	WinNT
#	Creation time:	15. 06. 2019 20:55

#	Modifying user name:	WinNT
#	Modification time:	15. 06. 2019 20:55

#	Program:	/corina/corina34_cracker 3.40 0067  02.08.2006

@<TRIPOS>MOLECULE
ASD04910430
  61   64    0    0    0
SMALL
NO_CHARGES


@<TRIPOS>ATOM
   1 C1            -1.2061    -0.0278     2.5421 C.ar    
   2 C2            -0.5153    -0.5230     1.4371 C.ar    
   3 N3             0.7320    -0.9585     1.5520 N.ar    
   4 C4             1.3661    -0.9413     2.7058 C.ar    
   5 C5             0.7354    -0.4589     3.8541 C.ar    
   6 C6            -0.5854     0.0085     3.7610 C.ar    
   7 C7             1.4456    -0.4408     5.1457 C.2     
   8 O8             2.7129    -0.8922     5.2241 O.3     
   9 O9             0.8882    -0.0190     6.1397 O.2     
  10 C10            3.3501    -0.8445     6.5279 C.3     
  11 N11           -1.1403    -0.5612     0.2025 N.pl3   
  12 C12           -2.5134    -0.0704     0.0612 C.3     
  13 C13           -2.7689     0.3177    -1.3965 C.3     
  14 C14           -3.4785    -1.1537     0.4692 C.ar    
  15 C15           -1.8065     1.4355    -1.8028 C.3     
  16 C16           -2.0619     1.8236    -3.2605 C.3     
  17 C17           -1.8376     0.6059    -4.1593 C.3     
  18 C18           -2.8000    -0.5120    -3.7530 C.3     
  19 C19           -2.5446    -0.9001    -2.2953 C.3     
  20 C20           -3.0814    -2.4777     0.4414 C.ar    
  21 C21           -4.7577    -0.8209     0.8759 C.ar    
  22 C22           -5.6443    -1.8113     1.2503 C.ar    
  23 C23           -5.2502    -3.1424     1.2181 C.ar    
  24 C24           -3.9639    -3.4729     0.8143 C.ar    
  25 C25           -5.1845     0.6240     0.9111 C.3     
  26 N26           -6.1478    -4.1500     1.5980 N.pl3   
  27 C27           -5.8936    -5.4780     1.6128 C.2     
  28 C28           -7.0135    -6.1068     2.0391 C.2     
  29 C29           -7.9845    -5.1320     2.2934 C.2     
  30 N30           -7.4649    -3.9589     2.0352 N.2     
  31 C31           -7.1848    -7.5943     2.2091 C.3     
  32 F32           -6.8161    -7.9608     3.5079 F       
  33 F33           -8.5232    -7.9377     1.9898 F       
  34 F34           -6.3742    -8.2654     1.2873 F       
  35 H35           -2.2203     0.3281     2.4362 H       
  36 H36            2.3818    -1.3036     2.7644 H       
  37 H37           -1.0996     0.3880     4.6316 H       
  38 H38            2.7798    -1.4488     7.2333 H       
  39 H39            4.3644    -1.2360     6.4511 H       
  40 H40            3.3844     0.1872     6.8781 H       
  41 H41           -0.6691    -0.9128    -0.5690 H       
  42 H42           -2.6551     0.8017     0.6996 H       
  43 H43           -3.7962     0.6653    -1.5053 H       
  44 H44           -1.9662     2.3031    -1.1625 H       
  45 H45           -0.7791     1.0879    -1.6940 H       
  46 H46           -3.0892     2.1713    -3.3693 H       
  47 H47           -1.3763     2.6200    -3.5500 H       
  48 H48           -2.0196     0.8824    -5.1978 H       
  49 H49           -0.8103     0.2583    -4.0505 H       
  50 H50           -3.8273    -0.1643    -3.8618 H       
  51 H51           -2.6402    -1.3795    -4.3933 H       
  52 H52           -1.5173    -1.2477    -2.1865 H       
  53 H53           -3.2302    -1.6965    -2.0058 H       
  54 H54           -2.0803    -2.7342     0.1275 H       
  55 H55           -6.6430    -1.5508     1.5682 H       
  56 H56           -3.6546    -4.5073     0.7879 H       
  57 H57           -5.6152     0.8992    -0.0516 H       
  58 H58           -5.9284     0.7642     1.6954 H       
  59 H59           -4.3185     1.2538     1.1150 H       
  60 H60           -4.9640    -5.9518     1.3341 H       
  61 H61           -8.9884    -5.3157     2.6467 H       
@<TRIPOS>BOND
   1    1    2 ar
   2    1    6 ar
   3    1   35 1
   4    2    3 ar
   5    2   11 1
   6    3    4 ar
   7    4    5 ar
   8    4   36 1
   9    5    6 ar
  10    5    7 1
  11    6   37 1
  12    7    8 1
  13    7    9 2
  14    8   10 1
  15   10   38 1
  16   10   39 1
  17   10   40 1
  18   11   12 1
  19   11   41 1
  20   12   13 1
  21   12   14 1
  22   12   42 1
  23   13   15 1
  24   13   19 1
  25   13   43 1
  26   14   20 ar
  27   14   21 ar
  28   15   16 1
  29   15   44 1
  30   15   45 1
  31   16   17 1
  32   16   46 1
  33   16   47 1
  34   17   18 1
  35   17   48 1
  36   17   49 1
  37   18   19 1
  38   18   50 1
  39   18   51 1
  40   19   52 1
  41   19   53 1
  42   20   24 ar
  43   20   54 1
  44   21   22 ar
  45   21   25 1
  46   22   23 ar
  47   22   55 1
  48   23   24 ar
  49   23   26 1
  50   24   56 1
  51   25   57 1
  52   25   58 1
  53   25   59 1
  54   26   27 1
  55   26   30 1
  56   27   28 2
  57   27   60 1
  58   28   29 1
  59   28   31 1
  60   29   30 2
  61   29   61 1
  62   31   32 1
  63   31   33 1
  64   31   34 1

#	End of record

