#	Name: ASD01900840
#	Creating user name:	WinNT
#	Creation time:	15. 06. 2019 19:52

#	Modifying user name:	WinNT
#	Modification time:	15. 06. 2019 19:52

#	Program:	/corina/corina34_cracker 3.40 0067  02.08.2006

@<TRIPOS>MOLECULE
ASD01900840
  58   62    0    0    0
SMALL
NO_CHARGES


@<TRIPOS>ATOM
   1 C1             3.7460     0.5216     0.8655 C.ar    
   2 C2             4.3974    -0.6923     0.8062 C.ar    
   3 C3             5.7343    -0.7560     0.4409 C.ar    
   4 C4             6.4357     0.3966     0.1383 C.ar    
   5 C5             5.7975     1.6233     0.1993 C.ar    
   6 C6             4.4385     1.6899     0.5550 C.ar    
   7 N7             6.4658     2.8109    -0.0770 N.pl3   
   8 C8             5.7021     3.9457    -0.6077 C.3     
   9 N9             4.4359     4.0862     0.1124 N.am    
  10 C10            3.7860     3.0098     0.5977 C.2     
  11 C11            3.8900     5.3620     0.3011 C.ar    
  12 C12            4.4045     6.1996     1.2818 C.ar    
  13 C13            3.8660     7.4576     1.4670 C.ar    
  14 C14            2.8113     7.8846     0.6735 C.ar    
  15 C15            2.2964     7.0482    -0.3061 C.ar    
  16 C16            2.8376     5.7921    -0.4963 C.ar    
  17 O17            2.2815     9.1235     0.8564 O.3     
  18 O18            2.6700     3.1272     1.0666 O.2     
  19 Br19           6.6046    -2.4327     0.3569 Br      
  20 C20            1.2063     9.5029    -0.0049 C.3     
  21 F21            0.1237     8.6390     0.1923 F       
  22 F22            0.8156    10.8142     0.2867 F       
  23 F23            1.6269     9.4270    -1.3370 F       
  24 C24            6.5243     5.2278    -0.4465 C.3     
  25 C25            5.4206     3.7149    -2.0951 C.3     
  26 C26            4.6838     4.9301    -2.6634 C.3     
  27 N27            5.5075     6.1322    -2.4831 N.3     
  28 C28            5.7547     6.3996    -1.0606 C.3     
  29 C29            4.8931     7.2946    -3.1383 C.3     
  30 C30            5.7100     8.5265    -2.8451 C.ar    
  31 C31            6.7560     8.8760    -3.6789 C.ar    
  32 C32            7.5066    10.0055    -3.4120 C.ar    
  33 C33            7.2115    10.7879    -2.3091 C.ar    
  34 C34            6.1626    10.4374    -1.4730 C.ar    
  35 C35            5.4092     9.3089    -1.7461 C.ar    
  36 F36            5.8726    11.1997    -0.3959 F       
  37 F37            7.9451    11.8918    -2.0474 F       
  38 H38            2.7041     0.5660     1.1466 H       
  39 H39            3.8633    -1.5998     1.0460 H       
  40 H40            7.4766     0.3400    -0.1440 H       
  41 H41            7.4203     2.8877     0.0781 H       
  42 H42            5.2255     5.8672     1.8998 H       
  43 H43            4.2659     8.1091     2.2299 H       
  44 H44            1.4750     7.3812    -0.9232 H       
  45 H45            2.4399     5.1428    -1.2622 H       
  46 H46            6.6956     5.4198     0.6127 H       
  47 H47            7.4810     5.1134    -0.9561 H       
  48 H48            6.3622     3.5787    -2.6270 H       
  49 H49            4.8021     2.8254    -2.2149 H       
  50 H50            4.4942     4.7757    -3.7256 H       
  51 H51            3.7361     5.0574    -2.1403 H       
  52 H52            4.8030     6.5202    -0.5430 H       
  53 H53            6.3415     7.3125    -0.9592 H       
  54 H54            4.8591     7.1289    -4.2151 H       
  55 H55            3.8802     7.4317    -2.7597 H       
  56 H56            6.9870     8.2657    -4.5394 H       
  57 H57            8.3237    10.2772    -4.0639 H       
  58 H58            4.5888     9.0374    -1.0983 H       
@<TRIPOS>BOND
   1    1    2 ar
   2    1    6 ar
   3    1   38 1
   4    2    3 ar
   5    2   39 1
   6    3    4 ar
   7    3   19 1
   8    4    5 ar
   9    4   40 1
  10    5    7 1
  11    5    6 ar
  12    6   10 1
  13    7    8 1
  14    7   41 1
  15    8    9 1
  16    8   25 1
  17    8   24 1
  18    9   10 am
  19    9   11 1
  20   10   18 2
  21   11   12 ar
  22   11   16 ar
  23   12   13 ar
  24   12   42 1
  25   13   14 ar
  26   13   43 1
  27   14   15 ar
  28   14   17 1
  29   15   16 ar
  30   15   44 1
  31   16   45 1
  32   17   20 1
  33   20   21 1
  34   20   22 1
  35   20   23 1
  36   24   28 1
  37   24   46 1
  38   24   47 1
  39   25   26 1
  40   25   48 1
  41   25   49 1
  42   26   27 1
  43   26   50 1
  44   26   51 1
  45   27   28 1
  46   27   29 1
  47   28   52 1
  48   28   53 1
  49   29   30 1
  50   29   54 1
  51   29   55 1
  52   30   31 ar
  53   30   35 ar
  54   31   32 ar
  55   31   56 1
  56   32   33 ar
  57   32   57 1
  58   33   34 ar
  59   33   37 1
  60   34   35 ar
  61   34   36 1
  62   35   58 1

#	End of record

