#	Name: ASD03320155
#	Creating user name:	WinNT
#	Creation time:	15. 06. 2019 20:36

#	Modifying user name:	WinNT
#	Modification time:	15. 06. 2019 20:36

#	Program:	/corina/corina34_cracker 3.40 0067  02.08.2006

@<TRIPOS>MOLECULE
ASD03320155
  21   21    0    0    0
SMALL
NO_CHARGES


@<TRIPOS>ATOM
   1 C1            -0.0167     1.3831     0.0096 C.ar    
   2 C2             0.0021    -0.0041     0.0020 C.ar    
   3 C3             1.2083    -0.6773    -0.0131 C.ar    
   4 C4             2.3962     0.0303    -0.0202 C.ar    
   5 C5             2.3801     1.4128    -0.0122 C.ar    
   6 C6             1.1765     2.0907     0.0021 C.ar    
   7 N7             3.6871    -0.6935    -0.0359 N.pl3   
   8 O8             3.7024    -1.9113    -0.0426 O.2     
   9 O9             4.7341    -0.0712    -0.0422 O.2     
  10 O10           -1.2021     2.0477     0.0189 O.3     
  11 C11           -1.1453     3.4755     0.0264 C.3     
  12 C12           -2.5664     4.0424     0.0362 C.3     
  13 F13           -0.4624     3.9091     1.1678 F       
  14 F14           -0.4732     3.9215    -1.1167 F       
  15 H15           -0.9255    -0.5572     0.0083 H       
  16 H16            1.2235    -1.7571    -0.0191 H       
  17 H17            3.3093     1.9632    -0.0170 H       
  18 H18            1.1645     3.1706     0.0076 H       
  19 H19           -3.0900     3.6950     0.9268 H       
  20 H20           -2.5230     5.1316     0.0419 H       
  21 H21           -3.0985     3.7047    -0.8531 H       
@<TRIPOS>BOND
   1    1    2 ar
   2    1    6 ar
   3    1   10 1
   4    2    3 ar
   5    2   15 1
   6    3    4 ar
   7    3   16 1
   8    4    5 ar
   9    4    7 1
  10    5    6 ar
  11    5   17 1
  12    6   18 1
  13    7    8 2
  14    7    9 2
  15   10   11 1
  16   11   12 1
  17   11   13 1
  18   11   14 1
  19   12   19 1
  20   12   20 1
  21   12   21 1

#	End of record

