#	Name: ASD02508118
#	Creating user name:	WinNT
#	Creation time:	15. 06. 2019 20:23

#	Modifying user name:	WinNT
#	Modification time:	15. 06. 2019 20:23

#	Program:	/corina/corina34_cracker 3.40 0067  02.08.2006

@<TRIPOS>MOLECULE
ASD02508118
  33   35    0    0    0
SMALL
NO_CHARGES


@<TRIPOS>ATOM
   1 C1             0.9369     2.2603     0.0108 C.ar    
   2 C2             0.6004     0.9035     0.1300 C.ar    
   3 C3             2.2869     2.5824    -0.1348 C.ar    
   4 C4             3.2660     1.6063    -0.1618 C.ar    
   5 C5             2.9125     0.2697    -0.0423 C.ar    
   6 C6             1.5722    -0.0688     0.1039 C.ar    
   7 N7             0.0842     3.3527     0.0129 N.am    
   8 C8             0.6097     4.5749    -0.1139 C.2     
   9 S9             2.3604     4.3458    -0.2561 S.3     
  10 N10            3.8945    -0.7265    -0.0687 N.am    
  11 S11            3.8686    -1.9446     1.0528 S.o2    
  12 C12            4.0527    -1.1981     2.6381 C.ar    
  13 C13            2.9350    -0.8999     3.3951 C.ar    
  14 O14            0.0067     5.6321    -0.1312 O.2     
  15 O15            2.5587    -2.4944     1.0178 O.2     
  16 O16            5.0415    -2.7164     0.8341 O.2     
  17 C17            5.3149    -0.9162     3.1265 C.ar    
  18 C18            5.4605    -0.3315     4.3702 C.ar    
  19 C19            4.3416    -0.0276     5.1270 C.ar    
  20 C20            3.0781    -0.3148     4.6389 C.ar    
  21 C21           -1.3630     3.1715     0.1508 C.3     
  22 F22            4.4828     0.5440     6.3429 F       
  23 H23           -0.4352     0.6192     0.2441 H       
  24 H24            4.3035     1.8835    -0.2759 H       
  25 H25            1.2909    -1.1073     0.1974 H       
  26 H26            4.5906    -0.7036    -0.7439 H       
  27 H27            1.9495    -1.1240     3.0142 H       
  28 H28            6.1875    -1.1533     2.5360 H       
  29 H29            6.4467    -0.1120     4.7518 H       
  30 H30            2.2046    -0.0779     5.2282 H       
  31 H31           -1.6331     3.1940     1.2066 H       
  32 H32           -1.8813     3.9741    -0.3739 H       
  33 H33           -1.6515     2.2117    -0.2777 H       
@<TRIPOS>BOND
   1    1    2 ar
   2    1    3 ar
   3    1    7 1
   4    2    6 ar
   5    2   23 1
   6    3    4 ar
   7    3    9 1
   8    4    5 ar
   9    4   24 1
  10    5    6 ar
  11    5   10 1
  12    6   25 1
  13    7    8 am
  14    7   21 1
  15    8    9 1
  16    8   14 2
  17   10   11 am
  18   10   26 1
  19   11   12 1
  20   11   15 2
  21   11   16 2
  22   12   13 ar
  23   12   17 ar
  24   13   20 ar
  25   13   27 1
  26   17   18 ar
  27   17   28 1
  28   18   19 ar
  29   18   29 1
  30   19   20 ar
  31   19   22 1
  32   20   30 1
  33   21   31 1
  34   21   32 1
  35   21   33 1

#	End of record

