#	Name: ASD01880046
#	Creating user name:	WinNT
#	Creation time:	15. 06. 2019 19:39

#	Modifying user name:	WinNT
#	Modification time:	15. 06. 2019 19:39

#	Program:	/corina/corina34_cracker 3.40 0067  02.08.2006

@<TRIPOS>MOLECULE
ASD01880046
  57   59    0    0    0
SMALL
NO_CHARGES


@<TRIPOS>ATOM
   1 S1            -0.0218     1.7577     0.0117 S.3     
   2 C2             0.0021    -0.0041     0.0020 C.ar    
   3 C3            -1.1858    -0.7363     0.0094 C.ar    
   4 C4            -1.1236    -2.1135     0.0015 C.ar    
   5 N5             0.0392    -2.7386    -0.0125 N.ar    
   6 C6             1.1845    -2.0821    -0.0199 C.ar    
   7 C7             1.2093    -0.7037    -0.0191 C.ar    
   8 C8             5.0644     7.4046    -4.5352 C.ar    
   9 C9             3.7638     7.2717    -4.0708 C.ar    
  10 C10            2.7007     7.8088    -4.7929 C.ar    
  11 C11            2.9262     8.4714    -5.9639 C.ar    
  12 C12            4.2336     8.6159    -6.4484 C.ar    
  13 C13            5.3097     8.0796    -5.7186 C.ar    
  14 C14            4.4783     9.3265    -7.7058 C.2     
  15 C15            3.3230     9.9045    -8.4819 C.3     
  16 C16            3.8488    10.5887    -9.7453 C.3     
  17 C17            2.6695    11.0661   -10.5951 C.3     
  18 C18            4.7136    11.7884    -9.3533 C.3     
  19 O19            6.5788     8.2135    -6.1770 O.3     
  20 O20            5.6112     9.4498    -8.1224 O.2     
  21 C21            1.8894     3.6894     0.0038 C.ar    
  22 C22            1.9694     4.3706     1.2038 C.ar    
  23 C23            2.1123     5.7457     1.2098 C.ar    
  24 C24            2.1756     6.4392     0.0159 C.ar    
  25 C25            2.0965     5.7577    -1.1844 C.ar    
  26 C26            1.9523     4.3831    -1.1905 C.ar    
  27 C27            6.2095     6.8204    -3.7488 C.3     
  28 O28            3.5262     6.6150    -2.9077 O.3     
  29 C29            1.7399     2.1898    -0.0028 C.3     
  30 C30            2.1646     6.5139    -2.4862 C.3     
  31 H31           -2.1404    -0.2313     0.0216 H       
  32 H32           -2.0378    -2.6885     0.0071 H       
  33 H33            2.1140    -2.6320    -0.0313 H       
  34 H34            2.1499    -0.1729    -0.0252 H       
  35 H35            1.6917     7.6996    -4.4237 H       
  36 H36            2.0966     8.8847    -6.5183 H       
  37 H37            2.6364     9.1051    -8.7605 H       
  38 H38            2.7995    10.6344    -7.8645 H       
  39 H39            4.4474     9.8813   -10.3192 H       
  40 H40            2.0709    11.7734   -10.0212 H       
  41 H41            3.0441    11.5535   -11.4952 H       
  42 H42            2.0534    10.2114   -10.8744 H       
  43 H43            4.1150    12.4957    -8.7793 H       
  44 H44            5.5538    11.4483    -8.7478 H       
  45 H45            5.0882    12.2759   -10.2534 H       
  46 H46            7.0263     9.0131    -5.8680 H       
  47 H47            1.9199     3.8287     2.1367 H       
  48 H48            2.1741     6.2781     2.1474 H       
  49 H49            2.2865     7.5135     0.0206 H       
  50 H50            1.8901     3.8508    -2.1281 H       
  51 H51            6.3909     5.7970    -4.0769 H       
  52 H52            7.1056     7.4188    -3.9129 H       
  53 H53            5.9602     6.8230    -2.6877 H       
  54 H54            2.2236     1.7726     0.8804 H       
  55 H55            2.2066     1.7821    -0.8995 H       
  56 H56            1.5879     5.9844    -3.2446 H       
  57 H57            1.7518     7.5132    -2.3479 H       
@<TRIPOS>BOND
   1    1    2 1
   2    1   29 1
   3    2    3 ar
   4    2    7 ar
   5    3    4 ar
   6    3   31 1
   7    4    5 ar
   8    4   32 1
   9    5    6 ar
  10    6    7 ar
  11    6   33 1
  12    7   34 1
  13    8    9 ar
  14    8   27 1
  15    8   13 ar
  16    9   10 ar
  17    9   28 1
  18   10   11 ar
  19   10   35 1
  20   11   12 ar
  21   11   36 1
  22   12   13 ar
  23   12   14 1
  24   13   19 1
  25   14   15 1
  26   14   20 2
  27   15   16 1
  28   15   37 1
  29   15   38 1
  30   16   17 1
  31   16   18 1
  32   16   39 1
  33   17   40 1
  34   17   41 1
  35   17   42 1
  36   18   43 1
  37   18   44 1
  38   18   45 1
  39   19   46 1
  40   21   22 ar
  41   21   26 ar
  42   21   29 1
  43   22   23 ar
  44   22   47 1
  45   23   24 ar
  46   23   48 1
  47   24   25 ar
  48   24   49 1
  49   25   26 ar
  50   25   30 1
  51   26   50 1
  52   27   51 1
  53   27   52 1
  54   27   53 1
  55   28   30 1
  56   29   54 1
  57   29   55 1
  58   30   56 1
  59   30   57 1

#	End of record

