#	Name: ASD01912924
#	Creating user name:	WinNT
#	Creation time:	15. 06. 2019 20:00

#	Modifying user name:	WinNT
#	Modification time:	15. 06. 2019 20:00

#	Program:	/corina/corina34_cracker 3.40 0067  02.08.2006

@<TRIPOS>MOLECULE
ASD01912924
  42   46    0    0    0
SMALL
NO_CHARGES


@<TRIPOS>ATOM
   1 C1            -0.0277     1.3497    -0.2040 C.2     
   2 N2             0.0028    -0.0031     0.0177 N.pl3   
   3 C3            -1.1903    -0.6736     0.2443 C.2     
   4 C4            -2.3512    -0.0321     0.2494 C.2     
   5 N5            -2.4359     1.3309     0.0312 N.am    
   6 C6            -1.3129     2.0502    -0.1904 C.2     
   7 C7             1.2806     1.7516    -0.3976 C.2     
   8 C8             2.0410     0.5893    -0.2782 C.2     
   9 N9             1.2230    -0.4067    -0.0335 N.2     
  10 O10           -1.3702     3.2509    -0.3842 O.2     
  11 C11           -3.6755     1.9624     0.0451 C.ar    
  12 C12            3.5394     0.4937    -0.4080 C.3     
  13 O13            4.0780     1.7899    -0.6759 O.3     
  14 C14            5.4261     1.8797    -0.8219 C.ar    
  15 C15            6.0164     3.1076    -1.0835 C.ar    
  16 C16            7.3870     3.1963    -1.2316 C.ar    
  17 C17            8.1704     2.0625    -1.1192 C.ar    
  18 C18            7.5845     0.8375    -0.8590 C.ar    
  19 C19            6.2149     0.7446    -0.7040 C.ar    
  20 C20           -4.8408     1.1829     0.0507 C.ar    
  21 N21           -3.7268     3.2783     0.0581 N.ar    
  22 C22           -4.8943     3.9281     0.0721 C.ar    
  23 C23           -6.1091     3.1979     0.0731 C.ar    
  24 C24           -6.0614     1.7880     0.0646 C.ar    
  25 N25           -4.9343     5.2660     0.0857 N.ar    
  26 C26           -6.0936     5.8844     0.0998 C.ar    
  27 C27           -7.2880     5.1623     0.1007 C.ar    
  28 N28           -7.2751     3.8482     0.0880 N.ar    
  29 H29           -1.1736    -1.7391     0.4196 H       
  30 H30           -3.2577    -0.5911     0.4290 H       
  31 H31            1.6371     2.7510    -0.5986 H       
  32 H32            3.9608     0.1101     0.5212 H       
  33 H33            3.7909    -0.1806    -1.2266 H       
  34 H34            5.4049     3.9934    -1.1717 H       
  35 H35            7.8470     4.1519    -1.4356 H       
  36 H36            9.2418     2.1339    -1.2353 H       
  37 H37            8.1985    -0.0468    -0.7724 H       
  38 H38            5.7577    -0.2125    -0.5007 H       
  39 H39           -4.7711     0.1051     0.0435 H       
  40 H40           -6.9693     1.2032     0.0652 H       
  41 H41           -6.1226     6.9640     0.1112 H       
  42 H42           -8.2312     5.6881     0.1124 H       
@<TRIPOS>BOND
   1    1    2 1
   2    1    7 2
   3    1    6 1
   4    2    3 1
   5    2    9 1
   6    3    4 2
   7    3   29 1
   8    4    5 1
   9    4   30 1
  10    5    6 am
  11    5   11 1
  12    6   10 2
  13    7    8 1
  14    7   31 1
  15    8    9 2
  16    8   12 1
  17   11   21 ar
  18   11   20 ar
  19   12   13 1
  20   12   32 1
  21   12   33 1
  22   13   14 1
  23   14   15 ar
  24   14   19 ar
  25   15   16 ar
  26   15   34 1
  27   16   17 ar
  28   16   35 1
  29   17   18 ar
  30   17   36 1
  31   18   19 ar
  32   18   37 1
  33   19   38 1
  34   20   24 ar
  35   20   39 1
  36   21   22 ar
  37   22   23 ar
  38   22   25 ar
  39   23   24 ar
  40   23   28 ar
  41   24   40 1
  42   25   26 ar
  43   26   27 ar
  44   26   41 1
  45   27   28 ar
  46   27   42 1

#	End of record

