#	Name: ASD03331085
#	Creating user name:	WinNT
#	Creation time:	15. 06. 2019 20:38

#	Modifying user name:	WinNT
#	Modification time:	15. 06. 2019 20:38

#	Program:	/corina/corina34_cracker 3.40 0067  02.08.2006

@<TRIPOS>MOLECULE
ASD03331085
  67   70    0    0    0
SMALL
NO_CHARGES


@<TRIPOS>ATOM
   1 N1             0.4080     1.1910    -1.4915 N.pl3   
   2 C2             0.4109    -0.1557    -1.3017 C.2     
   3 C3             1.6165    -1.0533    -1.4008 C.3     
   4 N4             2.7274    -0.4540    -0.6449 N.3     
   5 C5             3.5143     0.4499    -1.4859 C.3     
   6 C6             2.6275     1.1550    -2.5082 C.3     
   7 C7             1.5851     2.0131    -1.7862 C.3     
   8 C8            -0.8785     1.6216    -1.3448 C.2     
   9 N9            -1.6359     0.5885    -1.0587 N.2     
  10 C10           -0.8696    -0.5240    -1.0218 C.2     
  11 C11           -1.3364    -1.8910    -0.7311 C.2     
  12 O12           -0.5461    -2.8156    -0.7276 O.2     
  13 N13           -2.6390    -2.1169    -0.4691 N.am    
  14 C14           -4.6288    -3.4805    -0.0660 C.3     
  15 C15           -3.1031    -3.4761    -0.1801 C.3     
  16 C16           -2.6735    -4.4129    -1.3109 C.3     
  17 N17           -5.2198    -3.2710    -1.3944 N.3     
  18 C18           -4.7751    -1.9957    -1.9735 C.3     
  19 C19           -5.3476    -1.8525    -3.3857 C.3     
  20 N20           -6.8146    -1.9173    -3.3256 N.3     
  21 C21           -7.2593    -3.1926    -2.7465 C.3     
  22 C22           -6.6867    -3.3358    -1.3344 C.3     
  23 C23           -7.4056    -1.7078    -4.6540 C.3     
  24 C24           -2.4916    -3.9542     1.1383 C.3     
  25 C25            3.5783    -1.4919    -0.0477 C.3     
  26 C26           -1.3419     3.0188    -1.4845 C.ar    
  27 C27           -2.4751     3.3089    -2.2495 C.ar    
  28 C28           -2.9034     4.6164    -2.3758 C.ar    
  29 C29           -2.2115     5.6380    -1.7463 C.ar    
  30 C30           -1.0862     5.3550    -0.9865 C.ar    
  31 C31           -0.6529     4.0519    -0.8483 C.ar    
  32 F32           -2.6341     6.9149    -1.8732 F       
  33 F33           -3.1499     2.3130    -2.8644 F       
  34 Cl34          -0.2247     6.6419    -0.2021 Cl      
  35 H35            1.3778    -2.0315    -0.9834 H       
  36 H36            1.9045    -1.1627    -2.4463 H       
  37 H37            3.9970     1.1965    -0.8552 H       
  38 H38            4.2790    -0.1234    -2.0100 H       
  39 H39            3.2430     1.7913    -3.1442 H       
  40 H40            2.1213     0.4109    -3.1232 H       
  41 H41            1.2958     2.8484    -2.4238 H       
  42 H42            2.0069     2.3925    -0.8554 H       
  43 H43           -3.2692    -1.3795    -0.4719 H       
  44 H44           -4.9605    -4.4394     0.3322 H       
  45 H45           -4.9454    -2.6803     0.6029 H       
  46 H46           -1.5876    -4.5072    -1.3119 H       
  47 H47           -3.1232    -5.3943    -1.1603 H       
  48 H48           -3.0036    -4.0046    -2.2662 H       
  49 H49           -5.1277    -1.1719    -1.3529 H       
  50 H50           -3.6862    -1.9770    -2.0190 H       
  51 H51           -5.0429    -0.8942    -3.8062 H       
  52 H52           -4.9733    -2.6610    -4.0135 H       
  53 H53           -8.3482    -3.2113    -2.7011 H       
  54 H54           -6.9067    -4.0164    -3.3671 H       
  55 H55           -6.9915    -4.2941    -0.9138 H       
  56 H56           -7.0610    -2.5272    -0.7065 H       
  57 H57           -7.0493    -2.4797    -5.3361 H       
  58 H58           -8.4918    -1.7607    -4.5809 H       
  59 H59           -7.1142    -0.7273    -5.0309 H       
  60 H60           -2.7976    -3.2868     1.9439 H       
  61 H61           -2.8369    -4.9655     1.3534 H       
  62 H62           -1.4046    -3.9510     1.0570 H       
  63 H63            3.9349    -2.1632    -0.8289 H       
  64 H64            4.4301    -1.0239     0.4458 H       
  65 H65            3.0014    -2.0587     0.6830 H       
  66 H66           -3.7789     4.8423    -2.9665 H       
  67 H67            0.2207     3.8327    -0.2524 H       
@<TRIPOS>BOND
   1    1    2 1
   2    1    7 1
   3    1    8 1
   4    2    3 1
   5    2   10 2
   6    3    4 1
   7    3   35 1
   8    3   36 1
   9    4    5 1
  10    4   25 1
  11    5    6 1
  12    5   37 1
  13    5   38 1
  14    6    7 1
  15    6   39 1
  16    6   40 1
  17    7   41 1
  18    7   42 1
  19    8    9 2
  20    8   26 1
  21    9   10 1
  22   10   11 1
  23   11   12 2
  24   11   13 am
  25   13   15 1
  26   13   43 1
  27   14   15 1
  28   14   17 1
  29   14   44 1
  30   14   45 1
  31   15   16 1
  32   15   24 1
  33   16   46 1
  34   16   47 1
  35   16   48 1
  36   17   18 1
  37   17   22 1
  38   18   19 1
  39   18   49 1
  40   18   50 1
  41   19   20 1
  42   19   51 1
  43   19   52 1
  44   20   21 1
  45   20   23 1
  46   21   22 1
  47   21   53 1
  48   21   54 1
  49   22   55 1
  50   22   56 1
  51   23   57 1
  52   23   58 1
  53   23   59 1
  54   24   60 1
  55   24   61 1
  56   24   62 1
  57   25   63 1
  58   25   64 1
  59   25   65 1
  60   26   27 ar
  61   26   31 ar
  62   27   28 ar
  63   27   33 1
  64   28   29 ar
  65   28   66 1
  66   29   30 ar
  67   29   32 1
  68   30   31 ar
  69   30   34 1
  70   31   67 1

#	End of record

