#	Name: ASD09116011
#	Creating user name:	WinNT
#	Creation time:	15. 06. 2019 21:20

#	Modifying user name:	WinNT
#	Modification time:	15. 06. 2019 21:20

#	Program:	/corina/corina34_cracker 3.40 0067  02.08.2006

@<TRIPOS>MOLECULE
ASD09116011
  78   84    0    0    0
SMALL
NO_CHARGES


@<TRIPOS>ATOM
   1 C1            -0.0524     1.3610    -0.3527 C.ar    
   2 C2            -0.0933    -0.0181    -0.3820 C.ar    
   3 C3             1.0880    -0.7450    -0.5198 C.ar    
   4 C4             2.3046    -0.0735    -0.6273 C.ar    
   5 C5             2.3335     1.3059    -0.5968 C.ar    
   6 C6             1.1580     2.0221    -0.4598 C.ar    
   7 C7             1.0505    -2.2272    -0.5515 C.ar    
   8 C8             0.3606    -2.9618     0.4222 C.ar    
   9 C9             0.3533    -4.3476     0.3522 C.ar    
  10 N10            0.9885    -4.9956    -0.6208 N.ar    
  11 C11            1.6385    -4.3431    -1.5405 C.ar    
  12 C12            1.6921    -2.9460    -1.5493 C.ar    
  13 C13            2.3989    -4.9673    -2.6963 C.3     
  14 C14            1.8001    -4.3596    -3.9814 C.3     
  15 C15            1.8344    -2.8327    -3.8851 C.3     
  16 N16            2.4320    -2.4086    -2.6084 N.3     
  17 N17           -0.3357    -5.0786     1.3253 N.pl3   
  18 N18           -0.6332    -4.6653     2.6339 N.2     
  19 C19           -1.2874    -5.6475     3.2061 C.2     
  20 N20           -1.4170    -6.6524     2.3321 N.2     
  21 C21           -0.8528    -6.3217     1.1901 C.2     
  22 N22           -1.7698    -5.6453     4.5153 N.pl3   
  23 C23           -2.5480    -6.7110     4.9751 C.ar    
  24 C24           -2.5306    -7.0555     6.3210 C.ar    
  25 C25           -3.3448    -7.4245     4.0877 C.ar    
  26 C26           -4.1111    -8.4768     4.5536 C.ar    
  27 C27           -4.0875    -8.8177     5.8815 C.ar    
  28 C28           -3.3005    -8.1093     6.7738 C.ar    
  29 N29           -0.7905    -7.1093     0.0559 N.pl3   
  30 C30            3.8190    -2.9087    -2.5361 C.3     
  31 C31            3.8443    -4.4384    -2.5943 C.3     
  32 C32           -4.9802    -9.2516     3.5847 C.3     
  33 C33           -4.3714   -10.6428     3.3931 C.3     
  34 C34           -4.8456   -11.5952     4.4729 C.3     
  35 C35           -4.3266   -11.2772     5.8612 C.3     
  36 C36           -4.9301    -9.9715     6.3852 C.3     
  37 N37           -4.4182   -12.9545     4.1157 N.3     
  38 C38           -5.4175   -13.6139     3.2644 C.3     
  39 C39           -4.7496   -14.7398     2.4724 C.3     
  40 C40           -6.5290   -14.1961     4.1399 C.3     
  41 H41           -0.9675     1.9253    -0.2505 H       
  42 H42           -1.0388    -0.5333    -0.2979 H       
  43 H43            3.2230    -0.6316    -0.7339 H       
  44 H44            3.2757     1.8273    -0.6796 H       
  45 H45            1.1852     3.1015    -0.4367 H       
  46 H46           -0.1606    -2.4539     1.2202 H       
  47 H47            2.3438    -6.0559    -2.6885 H       
  48 H48            2.3845    -4.6827    -4.8429 H       
  49 H49            0.7689    -4.6936    -4.0954 H       
  50 H50            2.4245    -2.4334    -4.7100 H       
  51 H51            0.8177    -2.4452    -3.9503 H       
  52 H52           -1.5651    -4.9039     5.1064 H       
  53 H53           -1.9152    -6.4997     7.0129 H       
  54 H54           -3.3656    -7.1585     3.0412 H       
  55 H55           -3.2853    -8.3822     7.8187 H       
  56 H56           -1.1862    -7.9949     0.0580 H       
  57 H57           -0.3511    -6.7764    -0.7423 H       
  58 H58            4.3894    -2.5096    -3.3748 H       
  59 H59            4.2729    -2.5767    -1.6024 H       
  60 H60            4.3119    -4.8300    -1.6909 H       
  61 H61            4.4120    -4.7613    -3.4670 H       
  62 H62           -5.9875    -9.3454     3.9906 H       
  63 H63           -5.0148    -8.7317     2.6273 H       
  64 H64           -4.6658   -11.0314     2.4182 H       
  65 H65           -3.2848   -10.5670     3.4343 H       
  66 H66           -5.9351   -11.5746     4.4980 H       
  67 H67           -4.5906   -12.0904     6.5373 H       
  68 H68           -3.2414   -11.1810     5.8246 H       
  69 H69           -4.9277    -9.9783     7.4752 H       
  70 H70           -5.9513    -9.8669     6.0188 H       
  71 H71           -3.5135   -12.9436     3.6692 H       
  72 H72           -5.8429   -12.8863     2.5732 H       
  73 H73           -4.3242   -15.4674     3.1636 H       
  74 H74           -5.4910   -15.2290     1.8407 H       
  75 H75           -3.9577   -14.3250     1.8487 H       
  76 H76           -7.0636   -13.3855     4.6352 H       
  77 H77           -7.2225   -14.7620     3.5179 H       
  78 H78           -6.0928   -14.8555     4.8902 H       
@<TRIPOS>BOND
   1    1    2 ar
   2    1    6 ar
   3    1   41 1
   4    2    3 ar
   5    2   42 1
   6    3    4 ar
   7    3    7 1
   8    4    5 ar
   9    4   43 1
  10    5    6 ar
  11    5   44 1
  12    6   45 1
  13    7    8 ar
  14    7   12 ar
  15    8    9 ar
  16    8   46 1
  17    9   10 ar
  18    9   17 1
  19   10   11 ar
  20   11   12 ar
  21   11   13 1
  22   12   16 1
  23   13   14 1
  24   13   31 1
  25   13   47 1
  26   14   15 1
  27   14   48 1
  28   14   49 1
  29   15   16 1
  30   15   50 1
  31   15   51 1
  32   16   30 1
  33   17   18 1
  34   17   21 1
  35   18   19 2
  36   19   20 1
  37   19   22 1
  38   20   21 2
  39   21   29 1
  40   22   23 1
  41   22   52 1
  42   23   24 ar
  43   23   25 ar
  44   24   28 ar
  45   24   53 1
  46   25   26 ar
  47   25   54 1
  48   26   27 ar
  49   26   32 1
  50   27   28 ar
  51   27   36 1
  52   28   55 1
  53   29   56 1
  54   29   57 1
  55   30   31 1
  56   30   58 1
  57   30   59 1
  58   31   60 1
  59   31   61 1
  60   32   33 1
  61   32   62 1
  62   32   63 1
  63   33   34 1
  64   33   64 1
  65   33   65 1
  66   34   35 1
  67   34   37 1
  68   34   66 1
  69   35   36 1
  70   35   67 1
  71   35   68 1
  72   36   69 1
  73   36   70 1
  74   37   38 1
  75   37   71 1
  76   38   39 1
  77   38   40 1
  78   38   72 1
  79   39   73 1
  80   39   74 1
  81   39   75 1
  82   40   76 1
  83   40   77 1
  84   40   78 1

#	End of record

