#	Name: ASD01918325
#	Creating user name:	WinNT
#	Creation time:	15. 06. 2019 20:11

#	Modifying user name:	WinNT
#	Modification time:	15. 06. 2019 20:11

#	Program:	/corina/corina34_cracker 3.40 0067  02.08.2006

@<TRIPOS>MOLECULE
ASD01918325
  48   50    0    0    0
SMALL
NO_CHARGES


@<TRIPOS>ATOM
   1 Cl1            0.0000     0.0000     0.0000 Cl      
   2 H2             0.0000     1.3700     0.0000 H       
   3 C3             7.0899    22.2314    11.5772 C.3     
   4 N4             7.0422    20.7769    11.7452 N.pl3   
   5 C5             5.7505    20.0877    11.7984 C.3     
   6 C6             8.2223    20.0507    11.8541 C.ar    
   7 C7             9.4393    20.7204    11.9134 C.ar    
   8 C8            10.6099    19.9882    12.0219 C.ar    
   9 C9            10.5253    18.6057    12.0677 C.ar    
  10 C10            9.2773    17.9994    12.0039 C.ar    
  11 N11            8.1757    18.7281    11.9058 N.ar    
  12 N12            9.1828    16.6086    12.0489 N.am    
  13 C13            9.0899    15.9606    13.2669 C.2     
  14 C14            8.9979    14.6403    13.3550 C.2     
  15 N15            8.9909    13.8410    12.2214 N.pl3   
  16 N16            8.9123    12.5667    12.0648 N.2     
  17 C17            8.9427    12.2434    10.7936 C.2     
  18 C18            8.8720    10.8464    10.2328 C.3     
  19 O19            8.9335    10.9021     8.8062 O.3     
  20 C20            8.8814     9.7189     8.1398 C.ar    
  21 C21            8.7676     8.5291     8.8442 C.ar    
  22 C22            8.7143     7.3277     8.1644 C.ar    
  23 C23            8.7749     7.3103     6.7831 C.ar    
  24 C24            8.8888     8.4947     6.0788 C.ar    
  25 C25            8.9363     9.6991     6.7537 C.ar    
  26 C26            9.0513    13.4193    10.0528 C.2     
  27 C27            9.0808    14.4357    10.9892 C.2     
  28 C28            9.1763    15.8937    10.9016 C.2     
  29 O29            9.2527    16.4494     9.8207 O.2     
  30 H30            7.0806    22.7107    12.5561 H       
  31 H31            8.0017    22.5061    11.0468 H       
  32 H32            6.2231    22.5596    11.0036 H       
  33 H33            5.4513    19.7982    10.7910 H       
  34 H34            5.8390    19.1975    12.4211 H       
  35 H35            5.0000    20.7547    12.2227 H       
  36 H36            9.4714    21.7992    11.8749 H       
  37 H37           11.5682    20.4840    12.0693 H       
  38 H38           11.4198    18.0064    12.1517 H       
  39 H39            9.0927    16.5471    14.1738 H       
  40 H40            8.9274    14.1784    14.3287 H       
  41 H41            9.7103    10.2607    10.6100 H       
  42 H42            7.9357    10.3793    10.5382 H       
  43 H43            8.7209     8.5421     9.9231 H       
  44 H44            8.6257     6.4012     8.7122 H       
  45 H45            8.7335     6.3700     6.2535 H       
  46 H46            8.9363     8.4784     5.0000 H       
  47 H47            9.0208    10.6243     6.2029 H       
  48 H48            9.1018    13.5154     8.9783 H       
@<TRIPOS>BOND
   1    1    2 1
   2    3    4 1
   3    3   30 1
   4    3   31 1
   5    3   32 1
   6    4    5 1
   7    4    6 1
   8    5   33 1
   9    5   34 1
  10    5   35 1
  11    6   11 ar
  12    6    7 ar
  13    7    8 ar
  14    7   36 1
  15    8    9 ar
  16    8   37 1
  17    9   10 ar
  18    9   38 1
  19   10   11 ar
  20   10   12 1
  21   12   28 am
  22   12   13 1
  23   13   14 2
  24   13   39 1
  25   14   15 1
  26   14   40 1
  27   15   27 1
  28   15   16 1
  29   16   17 2
  30   17   18 1
  31   17   26 1
  32   18   19 1
  33   18   41 1
  34   18   42 1
  35   19   20 1
  36   20   25 ar
  37   20   21 ar
  38   21   22 ar
  39   21   43 1
  40   22   23 ar
  41   22   44 1
  42   23   24 ar
  43   23   45 1
  44   24   25 ar
  45   24   46 1
  46   25   47 1
  47   26   27 2
  48   26   48 1
  49   27   28 1
  50   28   29 2

#	End of record

