#	Name: ASD08070165
#	Creating user name:	WinNT
#	Creation time:	15. 06. 2019 21:14

#	Modifying user name:	WinNT
#	Modification time:	15. 06. 2019 21:14

#	Program:	/corina/corina34_cracker 3.40 0067  02.08.2006

@<TRIPOS>MOLECULE
ASD08070165
  36   38    0    0    0
SMALL
NO_CHARGES


@<TRIPOS>ATOM
   1 C1            -0.0167     1.3788     0.0096 C.ar    
   2 C2             0.0021    -0.0041     0.0020 C.ar    
   3 C3             1.2084    -0.6863    -0.0132 C.ar    
   4 C4             2.3999     0.0133    -0.0204 C.ar    
   5 C5             2.3855     1.4089    -0.0128 C.ar    
   6 C6             1.1667     2.0885     0.0021 C.ar    
   7 N7             3.6394     3.5119    -0.0125 N.am    
   8 C8             3.6564     2.1643    -0.0199 C.2     
   9 C9             5.2690     3.3159    -2.2819 C.ar    
  10 C10            5.3766     4.4153    -1.4397 C.ar    
  11 C11            4.8987     4.2604    -0.0196 C.3     
  12 C12            5.6953     3.3917    -3.5915 C.ar    
  13 C13            6.2361     4.5706    -4.0703 C.ar    
  14 C14            6.3427     5.6638    -3.2359 C.ar    
  15 C15            5.9100     5.5908    -1.9179 C.ar    
  16 C16            6.0414     6.8268    -1.0669 C.3     
  17 C17            5.9382     6.4721     0.4150 C.3     
  18 C18            4.6757     5.6275     0.6239 C.3     
  19 O19            4.7166     1.5699    -0.0325 O.2     
  20 F20            1.2193    -2.0372    -0.0206 F       
  21 H21           -0.9600     1.9046     0.0170 H       
  22 H22           -0.9271    -0.5546     0.0083 H       
  23 H23            3.3398    -0.5184    -0.0316 H       
  24 H24            1.1496     3.1683     0.0081 H       
  25 H25            2.7933     3.9863    -0.0025 H       
  26 H26            4.8523     2.3928    -1.9069 H       
  27 H27            5.6462     3.7117     0.5533 H       
  28 H28            5.6072     2.5330    -4.2406 H       
  29 H29            6.5742     4.6353    -5.0939 H       
  30 H30            6.7664     6.5840    -3.6103 H       
  31 H31            7.0075     7.2938    -1.2583 H       
  32 H32            5.2470     7.5270    -1.3251 H       
  33 H33            6.8160     5.9012     0.7178 H       
  34 H34            5.8713     7.3849     1.0071 H       
  35 H35            3.8234     6.1193     0.1551 H       
  36 H36            4.4884     5.5050     1.6906 H       
@<TRIPOS>BOND
   1    1    2 ar
   2    1    6 ar
   3    1   21 1
   4    2    3 ar
   5    2   22 1
   6    3    4 ar
   7    3   20 1
   8    4    5 ar
   9    4   23 1
  10    5    6 ar
  11    5    8 1
  12    6   24 1
  13    7    8 am
  14    7   11 1
  15    7   25 1
  16    8   19 2
  17    9   10 ar
  18    9   12 ar
  19    9   26 1
  20   10   11 1
  21   10   15 ar
  22   11   18 1
  23   11   27 1
  24   12   13 ar
  25   12   28 1
  26   13   14 ar
  27   13   29 1
  28   14   15 ar
  29   14   30 1
  30   15   16 1
  31   16   17 1
  32   16   31 1
  33   16   32 1
  34   17   18 1
  35   17   33 1
  36   17   34 1
  37   18   35 1
  38   18   36 1

#	End of record

