#	Name: ASD02508332
#	Creating user name:	WinNT
#	Creation time:	15. 06. 2019 20:24

#	Modifying user name:	WinNT
#	Modification time:	15. 06. 2019 20:24

#	Program:	/corina/corina34_cracker 3.40 0067  02.08.2006

@<TRIPOS>MOLECULE
ASD02508332
  38   39    0    0    0
SMALL
NO_CHARGES


@<TRIPOS>ATOM
   1 C1            -0.0168     1.3847     0.0097 C.ar    
   2 C2             0.0021    -0.0041     0.0020 C.ar    
   3 C3             1.2163    -0.6791    -0.0132 C.ar    
   4 C4             2.3998     0.0321    -0.0207 C.ar    
   5 C5             2.3774     1.4150    -0.0130 C.ar    
   6 C6             1.1709     2.0900     0.0021 C.ar    
   7 S7             3.8901     2.3187    -0.0226 S.o2    
   8 O8             3.5989     3.5944     0.5315 O.2     
   9 O9             4.8806     1.4487     0.5077 O.2     
  10 C10            4.3217     2.5952    -1.7084 C.ar    
  11 C11            3.8772     3.7314    -2.3583 C.ar    
  12 C12            4.2158     3.9483    -3.6809 C.ar    
  13 C13            4.9994     3.0292    -4.3534 C.ar    
  14 C14            5.4447     1.8935    -3.7032 C.ar    
  15 C15            5.1096     1.6787    -2.3794 C.ar    
  16 N16           -1.1970    -0.7204     0.0101 N.am    
  17 C17           -1.8950    -0.9943    -1.2484 C.3     
  18 S18           -1.8295    -1.2600     1.4422 S.o2    
  19 C19           -2.8982     0.0939     2.0038 C.3     
  20 O20           -2.6081    -2.3913     1.0773 O.2     
  21 O21           -0.7013    -1.3917     2.2961 O.2     
  22 N22            1.2412    -2.1589    -0.0209 N.pl3   
  23 O23            2.3060    -2.7500    -0.0342 O.2     
  24 O24            0.1968    -2.7856    -0.0139 O.2     
  25 H25           -0.9589     1.9125     0.0170 H       
  26 H26            3.3440    -0.4920    -0.0322 H       
  27 H27            1.1569     3.1699     0.0080 H       
  28 H28            3.2650     4.4494    -1.8329 H       
  29 H29            3.8679     4.8356    -4.1888 H       
  30 H30            5.2633     3.1984    -5.3869 H       
  31 H31            6.0566     1.1753    -4.2288 H       
  32 H32            5.4575     0.7914    -1.8714 H       
  33 H33           -1.5441    -1.9407    -1.6600 H       
  34 H34           -2.9676    -1.0541    -1.0635 H       
  35 H35           -1.6928    -0.1921    -1.9582 H       
  36 H36           -3.6735     0.2772     1.2599 H       
  37 H37           -3.3616    -0.1783     2.9520 H       
  38 H38           -2.3016     0.9965     2.1368 H       
@<TRIPOS>BOND
   1    1    2 ar
   2    1    6 ar
   3    1   25 1
   4    2    3 ar
   5    2   16 1
   6    3    4 ar
   7    3   22 1
   8    4    5 ar
   9    4   26 1
  10    5    6 ar
  11    5    7 1
  12    6   27 1
  13    7    8 2
  14    7    9 2
  15    7   10 1
  16   10   11 ar
  17   10   15 ar
  18   11   12 ar
  19   11   28 1
  20   12   13 ar
  21   12   29 1
  22   13   14 ar
  23   13   30 1
  24   14   15 ar
  25   14   31 1
  26   15   32 1
  27   16   17 1
  28   16   18 am
  29   17   33 1
  30   17   34 1
  31   17   35 1
  32   18   19 1
  33   18   20 2
  34   18   21 2
  35   19   36 1
  36   19   37 1
  37   19   38 1
  38   22   23 2
  39   22   24 2

#	End of record

