#	Name: ASD01911318
#	Creating user name:	WinNT
#	Creation time:	15. 06. 2019 19:57

#	Modifying user name:	WinNT
#	Modification time:	15. 06. 2019 19:57

#	Program:	/corina/corina34_cracker 3.40 0067  02.08.2006

@<TRIPOS>MOLECULE
ASD01911318
  33   35    0    0    0
SMALL
NO_CHARGES


@<TRIPOS>ATOM
   1 C1            -0.0167     1.3796     0.0096 C.ar    
   2 C2             0.0021    -0.0041     0.0020 C.ar    
   3 C3             1.2058    -0.6865    -0.0127 C.ar    
   4 C4             2.3967     0.0091    -0.0203 C.ar    
   5 C5             2.3857     1.4065    -0.0131 C.ar    
   6 C6             1.1662     2.0887     0.0021 C.ar    
   7 C7             3.6181     2.1358    -0.0205 C.1     
   8 C8             4.6284     2.7337    -0.0265 C.1     
   9 C9             5.8607     3.4629    -0.0339 C.ar    
  10 C10            5.8606     4.8583    -0.0268 C.ar    
  11 N11            6.9910     5.5315    -0.0354 N.ar    
  12 C12            8.1761     4.9287    -0.0516 C.ar    
  13 C13            8.2550     3.5366    -0.0545 C.ar    
  14 C14            7.0906     2.7874    -0.0424 C.ar    
  15 N15            9.3180     5.7230    -0.0725 N.3     
  16 C16           10.5076     4.9964     0.3847 C.3     
  17 C17           10.6032     3.6743    -0.3877 C.3     
  18 O18            9.4517     2.8897    -0.0578 O.3     
  19 C19            9.1192     6.9515     0.7080 C.3     
  20 H20           -0.9600     1.9055     0.0169 H       
  21 H21           -0.9274    -0.5541     0.0079 H       
  22 H22            1.2128    -1.7665    -0.0178 H       
  23 H23            3.3354    -0.5248    -0.0314 H       
  24 H24            1.1500     3.1686     0.0077 H       
  25 H25            4.9217     5.3919    -0.0145 H       
  26 H26            7.1281     1.7081    -0.0473 H       
  27 H27           11.3978     5.5960     0.1947 H       
  28 H28           10.4231     4.7912     1.4518 H       
  29 H29           10.6195     3.8732    -1.4593 H       
  30 H30           11.5085     3.1415    -0.0967 H       
  31 H31            8.8241     6.6922     1.7247 H       
  32 H32           10.0487     7.5203     0.7334 H       
  33 H33            8.3373     7.5536     0.2451 H       
@<TRIPOS>BOND
   1    1    2 ar
   2    1    6 ar
   3    1   20 1
   4    2    3 ar
   5    2   21 1
   6    3    4 ar
   7    3   22 1
   8    4    5 ar
   9    4   23 1
  10    5    6 ar
  11    5    7 1
  12    6   24 1
  13    7    8 3
  14    8    9 1
  15    9   10 ar
  16    9   14 ar
  17   10   11 ar
  18   10   25 1
  19   11   12 ar
  20   12   13 ar
  21   12   15 1
  22   13   14 ar
  23   13   18 1
  24   14   26 1
  25   15   16 1
  26   15   19 1
  27   16   17 1
  28   16   27 1
  29   16   28 1
  30   17   18 1
  31   17   29 1
  32   17   30 1
  33   19   31 1
  34   19   32 1
  35   19   33 1

#	End of record

