#	Name: ASD06170008
#	Creating user name:	WinNT
#	Creation time:	15. 06. 2019 21:05

#	Modifying user name:	WinNT
#	Modification time:	15. 06. 2019 21:05

#	Program:	/corina/corina34_cracker 3.40 0067  02.08.2006

@<TRIPOS>MOLECULE
ASD06170008
  72   77    0    0    0
SMALL
NO_CHARGES


@<TRIPOS>ATOM
   1 N1            -0.3170     1.3369     0.2198 N.pl3   
   2 N2            -0.1398    -0.0027    -0.1387 N.am    
   3 C3             1.1501    -0.1867    -0.4889 C.2     
   4 C4             1.8142     1.1179    -0.3388 C.2     
   5 C5             0.8478     2.0019     0.0998 C.2     
   6 C6             3.2262     1.4200    -0.6023 C.2     
   7 O7             3.6482     2.5492    -0.4357 O.2     
   8 N8             4.0554     0.4468    -1.0288 N.am    
   9 C9             1.0609     3.4645     0.3936 C.3     
  10 N10            0.2832     4.2729    -0.5549 N.3     
  11 C11            0.2744     5.6924    -0.1562 C.3     
  12 C12            0.8322     6.5043    -1.3441 C.3     
  13 C13            0.5940     5.5626    -2.5537 C.3     
  14 C14            0.8413     4.1708    -1.9201 C.3     
  15 C15           -1.1331    -0.9874    -0.1345 C.ar    
  16 C16           -1.1707    -1.9424    -1.1422 C.ar    
  17 C17           -2.1525    -2.9136    -1.1349 C.ar    
  18 C18           -3.0979    -2.9356    -0.1259 C.ar    
  19 C19           -3.0633    -1.9862     0.8789 C.ar    
  20 C20           -2.0807    -1.0157     0.8806 C.ar    
  21 O21            1.6635    -1.2270    -0.8562 O.2     
  22 C22           -1.5835     1.9307     0.6554 C.3     
  23 C23            5.3591     0.7637    -1.4298 C.ar    
  24 C24            6.0190     1.8433    -0.8569 C.ar    
  25 C25            7.3060     2.1549    -1.2530 C.ar    
  26 C26            7.9386     1.3879    -2.2241 C.ar    
  27 C27            7.2788     0.3105    -2.7953 C.ar    
  28 C28            5.9944    -0.0046    -2.3959 C.ar    
  29 O29            9.2047     1.6945    -2.6145 O.3     
  30 N30           12.2808     0.7830    -0.0230 N.ar    
  31 C31           11.0338     0.5943     0.3403 C.ar    
  32 C32            9.9721     0.8897    -0.5051 C.ar    
  33 C33           10.2211     1.3976    -1.7682 C.ar    
  34 C34           11.5676     1.5968    -2.1489 C.ar    
  35 C35           11.8983     2.1082    -3.4122 C.ar    
  36 C36           13.2044     2.2892    -3.7491 C.ar    
  37 C37           14.2257     1.9709    -2.8492 C.ar    
  38 C38           13.9335     1.4668    -1.6021 C.ar    
  39 C39           12.5942     1.2708    -1.2292 C.ar    
  40 O40           15.5214     2.1609    -3.2098 O.3     
  41 C41           15.7607     2.6863    -4.5170 C.3     
  42 F42            7.9486     3.2051    -0.6967 F       
  43 H43            3.7491    -0.4731    -1.0579 H       
  44 H44            0.7337     3.6823     1.4103 H       
  45 H45            2.1193     3.7048     0.2933 H       
  46 H46           -0.7450     6.0095     0.0636 H       
  47 H47            0.9066     5.8354     0.7201 H       
  48 H48            0.2805     7.4364    -1.4668 H       
  49 H49            1.8963     6.6997    -1.2115 H       
  50 H50           -0.4290     5.6486    -2.9200 H       
  51 H51            1.3105     5.7617    -3.3506 H       
  52 H52            1.9094     3.9572    -1.8785 H       
  53 H53            0.3207     3.3983    -2.4861 H       
  54 H54           -0.4330    -1.9253    -1.9309 H       
  55 H55           -2.1823    -3.6565    -1.9182 H       
  56 H56           -3.8651    -3.6957    -0.1228 H       
  57 H57           -3.8031    -2.0061     1.6655 H       
  58 H58           -2.0518    -0.2769     1.6679 H       
  59 H59           -2.3813     1.1938     0.5621 H       
  60 H60           -1.4988     2.2447     1.6957 H       
  61 H61           -1.8128     2.7952     0.0323 H       
  62 H62            5.5266     2.4390    -0.1025 H       
  63 H63            7.7709    -0.2853    -3.5499 H       
  64 H64            5.4828    -0.8466    -2.8384 H       
  65 H65           10.8275     0.1984     1.3237 H       
  66 H66            8.9563     0.7230    -0.1783 H       
  67 H67           11.1182     2.3575    -4.1163 H       
  68 H68           13.4547     2.6829    -4.7231 H       
  69 H69           14.7299     1.2234    -0.9144 H       
  70 H70           16.8341     2.7887    -4.6766 H       
  71 H71           15.3455     2.0083    -5.2627 H       
  72 H72           15.2849     3.6627    -4.6088 H       
@<TRIPOS>BOND
   1    1    2 1
   2    1    5 1
   3    1   22 1
   4    2    3 am
   5    2   15 1
   6    3    4 1
   7    3   21 2
   8    4    5 2
   9    4    6 1
  10    5    9 1
  11    6    7 2
  12    6    8 am
  13    8   23 1
  14    8   43 1
  15    9   10 1
  16    9   44 1
  17    9   45 1
  18   10   11 1
  19   10   14 1
  20   11   12 1
  21   11   46 1
  22   11   47 1
  23   12   13 1
  24   12   48 1
  25   12   49 1
  26   13   14 1
  27   13   50 1
  28   13   51 1
  29   14   52 1
  30   14   53 1
  31   15   16 ar
  32   15   20 ar
  33   16   17 ar
  34   16   54 1
  35   17   18 ar
  36   17   55 1
  37   18   19 ar
  38   18   56 1
  39   19   20 ar
  40   19   57 1
  41   20   58 1
  42   22   59 1
  43   22   60 1
  44   22   61 1
  45   23   24 ar
  46   23   28 ar
  47   24   25 ar
  48   24   62 1
  49   25   26 ar
  50   25   42 1
  51   26   27 ar
  52   26   29 1
  53   27   28 ar
  54   27   63 1
  55   28   64 1
  56   29   33 1
  57   30   31 ar
  58   30   39 ar
  59   31   32 ar
  60   31   65 1
  61   32   33 ar
  62   32   66 1
  63   33   34 ar
  64   34   35 ar
  65   34   39 ar
  66   35   36 ar
  67   35   67 1
  68   36   37 ar
  69   36   68 1
  70   37   38 ar
  71   37   40 1
  72   38   39 ar
  73   38   69 1
  74   40   41 1
  75   41   70 1
  76   41   71 1
  77   41   72 1

#	End of record

