#	Name: ASD00310089
#	Creating user name:	WinNT
#	Creation time:	15. 06. 2019 18:33

#	Modifying user name:	WinNT
#	Modification time:	15. 06. 2019 18:33

#	Program:	/corina/corina34_cracker 3.40 0067  02.08.2006

@<TRIPOS>MOLECULE
ASD00310089
  44   47    0    0    0
SMALL
NO_CHARGES


@<TRIPOS>ATOM
   1 N1             0.3474     0.0440    -0.7977 N.pl3   
   2 C2             0.5139    -1.2568    -0.4601 C.2     
   3 C3             1.8299    -1.4998    -0.1936 C.2     
   4 C4             2.5383    -0.2202    -0.3876 C.ar    
   5 C5             3.8672     0.1733    -0.2714 C.ar    
   6 C6             4.2172     1.4920    -0.5315 C.ar    
   7 C7             3.2358     2.4156    -0.9079 C.ar    
   8 C8             1.9203     2.0283    -1.0235 C.ar    
   9 C9             1.5557     0.7095    -0.7657 C.ar    
  10 C10            2.4233    -2.7806     0.2069 C.2     
  11 O11            3.6188    -2.8581     0.4152 O.2     
  12 O12            1.6429    -3.8717     0.3439 O.3     
  13 C13            5.6320     1.9216    -0.4098 C.ar    
  14 C14            6.2378     2.6315    -1.4450 C.ar    
  15 C15            7.5532     3.0294    -1.3289 C.ar    
  16 C16            8.2740     2.7231    -0.1827 C.ar    
  17 C17            7.6735     2.0158     0.8499 C.ar    
  18 C18            6.3564     1.6209     0.7424 C.ar    
  19 O19            9.5700     3.1161    -0.0714 O.3     
  20 C20           10.0891     3.9430    -1.1149 C.3     
  21 C21           11.2749     4.7715    -0.5903 C.3     
  22 C22           12.5013     4.3700    -1.4356 C.3     
  23 C23           11.8934     3.8263    -2.7524 C.3     
  24 C24           10.6363     3.0669    -2.2606 C.3     
  25 O25           11.0061     6.1660    -0.7494 O.3     
  26 Cl26           3.6808     4.0622    -1.2309 Cl      
  27 H27           -0.5016     0.4499    -1.0332 H       
  28 H28           -0.2762    -1.9913    -0.4091 H       
  29 H29            4.6222    -0.5420     0.0197 H       
  30 H30            1.1697     2.7483    -1.3143 H       
  31 H31            2.0790    -4.6928     0.6095 H       
  32 H32            5.6778     2.8695    -2.3373 H       
  33 H33            8.0231     3.5796    -2.1308 H       
  34 H34            8.2369     1.7783     1.7401 H       
  35 H35            5.8883     1.0748     1.5481 H       
  36 H36            9.3086     4.6046    -1.4908 H       
  37 H37           11.4544     4.5429     0.4602 H       
  38 H38           13.1282     5.2390    -1.6350 H       
  39 H39           13.0746     3.5926    -0.9306 H       
  40 H40           11.6152     4.6449    -3.4163 H       
  41 H41           12.5872     3.1459    -3.2461 H       
  42 H42           10.9084     2.0790    -1.8889 H       
  43 H43            9.9022     2.9849    -3.0622 H       
  44 H44           11.7173     6.7418    -0.4367 H       
@<TRIPOS>BOND
   1    1    2 1
   2    1    9 1
   3    1   27 1
   4    2    3 2
   5    2   28 1
   6    3    4 1
   7    3   10 1
   8    4    5 ar
   9    4    9 ar
  10    5    6 ar
  11    5   29 1
  12    6    7 ar
  13    6   13 1
  14    7    8 ar
  15    7   26 1
  16    8    9 ar
  17    8   30 1
  18   10   11 2
  19   10   12 1
  20   12   31 1
  21   13   14 ar
  22   13   18 ar
  23   14   15 ar
  24   14   32 1
  25   15   16 ar
  26   15   33 1
  27   16   17 ar
  28   16   19 1
  29   17   18 ar
  30   17   34 1
  31   18   35 1
  32   19   20 1
  33   20   21 1
  34   20   24 1
  35   20   36 1
  36   21   22 1
  37   21   25 1
  38   21   37 1
  39   22   23 1
  40   22   38 1
  41   22   39 1
  42   23   24 1
  43   23   40 1
  44   23   41 1
  45   24   42 1
  46   24   43 1
  47   25   44 1

#	End of record

