#	Name: ASD01883122
#	Creating user name:	WinNT
#	Creation time:	15. 06. 2019 19:45

#	Modifying user name:	WinNT
#	Modification time:	15. 06. 2019 19:45

#	Program:	/corina/corina34_cracker 3.40 0067  02.08.2006

@<TRIPOS>MOLECULE
ASD01883122
  44   46    0    0    0
SMALL
NO_CHARGES


@<TRIPOS>ATOM
   1 N1            -0.0700     1.2318     1.3491 N.am    
   2 C2            -0.0339    -0.0494     0.9385 C.2     
   3 C3            -1.2425    -0.7522     0.7089 C.2     
   4 C4            -2.4619    -0.0841     0.9186 C.2     
   5 C5            -2.4330     1.2572     1.3487 C.2     
   6 C6            -1.2480     1.8746     1.5563 C.2     
   7 O7             1.0375    -0.6046     0.7640 O.2     
   8 C8            -1.2227    -2.1156     0.2714 C.1     
   9 N9            -1.2069    -3.1971    -0.0757 N.1     
  10 C10            1.1877     1.9458     1.5831 C.3     
  11 C11            1.6311     2.6347     0.2909 C.3     
  12 C12            2.9445     3.3803     0.5352 C.3     
  13 C13            3.3879     4.0692    -0.7570 C.3     
  14 C14           -3.7482    -0.7750     0.6920 C.ar    
  15 C15           -4.6133    -1.0135     1.7627 C.ar    
  16 C16           -5.8114    -1.6579     1.5474 C.ar    
  17 C17           -6.1603    -2.0707     0.2669 C.ar    
  18 C18           -5.3022    -1.8357    -0.8008 C.ar    
  19 C19           -4.1051    -1.1863    -0.5946 C.ar    
  20 O20           -7.3421    -2.7056     0.0587 O.3     
  21 C21           -8.4763    -1.9612     0.0740 C.ar    
  22 N22           -8.4037    -0.6423     0.1807 N.ar    
  23 C23           -9.5109     0.0804     0.1954 C.ar    
  24 C24          -10.7432    -0.5380     0.1000 C.ar    
  25 N25          -10.8195    -1.8539    -0.0062 N.ar    
  26 C26           -9.7180    -2.5804    -0.0281 C.ar    
  27 H27           -3.3569     1.7909     1.5161 H       
  28 H28           -1.2382     2.9029     1.8863 H       
  29 H29            1.0412     2.6941     2.3620 H       
  30 H30            1.9541     1.2379     1.8988 H       
  31 H31            1.7775     1.8864    -0.4880 H       
  32 H32            0.8647     3.3426    -0.0249 H       
  33 H33            2.7980     4.1286     1.3141 H       
  34 H34            3.7109     2.6724     0.8510 H       
  35 H35            3.5344     3.3209    -1.5359 H       
  36 H36            2.6215     4.7771    -1.0727 H       
  37 H37            4.3236     4.6005    -0.5829 H       
  38 H38           -4.3427    -0.6934     2.7581 H       
  39 H39           -6.4805    -1.8430     2.3747 H       
  40 H40           -5.5764    -2.1586    -1.7942 H       
  41 H41           -3.4388    -1.0041    -1.4248 H       
  42 H42           -9.4522     1.1553     0.2823 H       
  43 H43          -11.6459     0.0548     0.1126 H       
  44 H44           -9.7807    -3.6551    -0.1152 H       
@<TRIPOS>BOND
   1    1    2 am
   2    1   10 1
   3    1    6 1
   4    2    3 1
   5    2    7 2
   6    3    4 2
   7    3    8 1
   8    4    5 1
   9    4   14 1
  10    5    6 2
  11    5   27 1
  12    6   28 1
  13    8    9 3
  14   10   11 1
  15   10   29 1
  16   10   30 1
  17   11   12 1
  18   11   31 1
  19   11   32 1
  20   12   13 1
  21   12   33 1
  22   12   34 1
  23   13   35 1
  24   13   36 1
  25   13   37 1
  26   14   15 ar
  27   14   19 ar
  28   15   16 ar
  29   15   38 1
  30   16   17 ar
  31   16   39 1
  32   17   18 ar
  33   17   20 1
  34   18   19 ar
  35   18   40 1
  36   19   41 1
  37   20   21 1
  38   21   22 ar
  39   21   26 ar
  40   22   23 ar
  41   23   24 ar
  42   23   42 1
  43   24   25 ar
  44   24   43 1
  45   25   26 ar
  46   26   44 1

#	End of record

