#	Name: ASD02508053
#	Creating user name:	WinNT
#	Creation time:	15. 06. 2019 20:23

#	Modifying user name:	WinNT
#	Modification time:	15. 06. 2019 20:23

#	Program:	/corina/corina34_cracker 3.40 0067  02.08.2006

@<TRIPOS>MOLECULE
ASD02508053
  38   40    0    0    0
SMALL
NO_CHARGES


@<TRIPOS>ATOM
   1 C1            -0.0117     1.3910    -0.0078 C.ar    
   2 C2             0.0073     0.0102     0.1089 C.ar    
   3 C3             1.1826     2.1003    -0.1346 C.ar    
   4 C4             2.3899     1.4204    -0.1438 C.ar    
   5 C5             2.4055     0.0383    -0.0269 C.ar    
   6 C6             1.2127    -0.6655     0.0995 C.ar    
   7 N7            -1.0408     2.3355    -0.0367 N.am    
   8 C8            -0.4714     3.5499    -0.1686 C.2     
   9 O9             0.8626     3.4145    -0.2289 O.3     
  10 N10            3.6245    -0.6495    -0.0361 N.am    
  11 S11            4.9610     0.0248     0.6719 S.o2    
  12 C12            4.5822     0.2680     2.3754 C.ar    
  13 C13            4.8538    -0.7312     3.2920 C.ar    
  14 O14           -1.0734     4.6048    -0.2283 O.2     
  15 O15            5.9815    -0.9630     0.6248 O.2     
  16 O16            5.1057     1.3194     0.1042 O.2     
  17 Cl17           1.2380    -2.3952     0.2449 Cl      
  18 C18            4.0196     1.4591     2.7935 C.ar    
  19 C19            3.7213     1.6552     4.1294 C.ar    
  20 C20            3.9859     0.6563     5.0520 C.ar    
  21 C21            4.5571    -0.5415     4.6317 C.ar    
  22 O22            4.8184    -1.5253     5.5336 O.3     
  23 C23            5.4051    -2.7273     5.0306 C.3     
  24 O24            3.6936     0.8477     6.3663 O.3     
  25 C25            3.1145     2.1036     6.7259 C.3     
  26 H26           -0.9186    -0.5370     0.2074 H       
  27 H27            3.3171     1.9655    -0.2422 H       
  28 H28           -1.9910     2.1509     0.0261 H       
  29 H29            3.6864    -1.5212    -0.4571 H       
  30 H30            5.2970    -1.6597     2.9633 H       
  31 H31            3.8127     2.2386     2.0752 H       
  32 H32            3.2823     2.5872     4.4536 H       
  33 H33            4.7394    -3.1755     4.2930 H       
  34 H34            6.3624    -2.4965     4.5634 H       
  35 H35            5.5609    -3.4268     5.8519 H       
  36 H36            3.7982     2.9091     6.4576 H       
  37 H37            2.1721     2.2348     6.1941 H       
  38 H38            2.9315     2.1251     7.8002 H       
@<TRIPOS>BOND
   1    1    2 ar
   2    1    3 ar
   3    1    7 1
   4    2    6 ar
   5    2   26 1
   6    3    4 ar
   7    3    9 1
   8    4    5 ar
   9    4   27 1
  10    5    6 ar
  11    5   10 1
  12    6   17 1
  13    7    8 am
  14    7   28 1
  15    8    9 1
  16    8   14 2
  17   10   11 am
  18   10   29 1
  19   11   12 1
  20   11   15 2
  21   11   16 2
  22   12   13 ar
  23   12   18 ar
  24   13   21 ar
  25   13   30 1
  26   18   19 ar
  27   18   31 1
  28   19   20 ar
  29   19   32 1
  30   20   21 ar
  31   20   24 1
  32   21   22 1
  33   22   23 1
  34   23   33 1
  35   23   34 1
  36   23   35 1
  37   24   25 1
  38   25   36 1
  39   25   37 1
  40   25   38 1

#	End of record

