#	Name: ASD03430874
#	Creating user name:	WinNT
#	Creation time:	15. 06. 2019 20:41

#	Modifying user name:	WinNT
#	Modification time:	15. 06. 2019 20:41

#	Program:	/corina/corina34_cracker 3.40 0067  02.08.2006

@<TRIPOS>MOLECULE
ASD03430874
  34   38    0    0    0
SMALL
NO_CHARGES


@<TRIPOS>ATOM
   1 O1            -0.0164     1.3593     0.0095 O.3     
   2 C2             0.0021    -0.0041     0.0020 C.ar    
   3 C3             1.2395    -0.4882    -0.4145 C.ar    
   4 C4             2.1037     0.7142    -0.6816 C.3     
   5 C5             1.3356     1.8557    -0.0007 C.3     
   6 O6            -1.6118    -3.3139     0.5403 O.3     
   7 C7            -0.7767    -2.2763     0.2557 C.ar    
   8 C8             0.4624    -2.7339    -0.1766 C.ar    
   9 C9             0.4008    -4.2488    -0.1818 C.3     
  10 C10           -1.1222    -4.5064    -0.0959 C.3     
  11 C11            1.4628    -1.8459    -0.5055 C.ar    
  12 C12           -0.9996    -0.9069     0.3380 C.ar    
  13 N13            4.3401     0.7049    -1.1537 N.am    
  14 C14            3.4874     0.5582    -0.1199 C.2     
  15 C15            2.2951     0.9664    -2.1478 C.ar    
  16 C16            1.4291     1.1889    -3.1954 C.ar    
  17 C17            1.9225     1.3943    -4.4717 C.ar    
  18 C18            3.2871     1.3758    -4.6936 C.ar    
  19 C19            4.1605     1.1535    -3.6465 C.ar    
  20 C20            3.6711     0.9460    -2.3575 C.ar    
  21 O21            3.7805     0.3429     1.0372 O.2     
  22 F22            5.4924     1.1367    -3.8723 F       
  23 H23            1.4068     2.7729    -0.5854 H       
  24 H24            1.6976     2.0139     1.0152 H       
  25 H25            0.8127    -4.6523    -1.1067 H       
  26 H26            0.9155    -4.6626     0.6854 H       
  27 H27           -1.3315    -5.3841     0.5157 H       
  28 H28           -1.5518    -4.6170    -1.0916 H       
  29 H29            2.4232    -2.2135    -0.8354 H       
  30 H30           -1.9610    -0.5407     0.6667 H       
  31 H31            5.3051     0.6502    -1.0718 H       
  32 H32            0.3635     1.2028    -3.0204 H       
  33 H33            1.2430     1.5684    -5.2930 H       
  34 H34            3.6719     1.5356    -5.6900 H       
@<TRIPOS>BOND
   1    1    2 1
   2    1    5 1
   3    2    3 ar
   4    2   12 ar
   5    3    4 1
   6    3   11 ar
   7    4    5 1
   8    4   14 1
   9    4   15 1
  10    5   23 1
  11    5   24 1
  12    6    7 1
  13    6   10 1
  14    7    8 ar
  15    7   12 ar
  16    8    9 1
  17    8   11 ar
  18    9   10 1
  19    9   25 1
  20    9   26 1
  21   10   27 1
  22   10   28 1
  23   11   29 1
  24   12   30 1
  25   13   14 am
  26   13   20 1
  27   13   31 1
  28   14   21 2
  29   15   16 ar
  30   15   20 ar
  31   16   17 ar
  32   16   32 1
  33   17   18 ar
  34   17   33 1
  35   18   19 ar
  36   18   34 1
  37   19   20 ar
  38   19   22 1

#	End of record

