#	Name: ASD00460007
#	Creating user name:	WinNT
#	Creation time:	15. 06. 2019 18:36

#	Modifying user name:	WinNT
#	Modification time:	15. 06. 2019 18:36

#	Program:	/corina/corina34_cracker 3.40 0067  02.08.2006

@<TRIPOS>MOLECULE
ASD00460007
  75   80    0    0    0
SMALL
NO_CHARGES


@<TRIPOS>ATOM
   1 C1            -0.8022     2.5836    -1.4997 C.ar    
   2 C2            -0.6567     1.2100    -1.5948 C.ar    
   3 C3            -1.6895     0.3751    -1.2104 C.ar    
   4 C4            -2.8701     0.9087    -0.7301 C.ar    
   5 C5            -3.0209     2.2841    -0.6329 C.ar    
   6 C6            -1.9820     3.1229    -1.0133 C.ar    
   7 F7             0.2082     3.3977    -1.8759 F       
   8 F8            -2.1253     4.4630    -0.9195 F       
   9 O9            -4.1824     2.8099    -0.1608 O.3     
  10 C10           -5.2059     1.8871     0.2170 C.3     
  11 C11           -6.4279     2.6585     0.7196 C.3     
  12 C12           -7.5673     1.6785     1.0063 C.3     
  13 N13           -8.7765     2.4273     1.3738 N.3     
  14 C14           -9.8939     1.5167     1.6568 C.3     
  15 C15          -11.1325     2.3314     2.0350 C.3     
  16 C16          -11.4741     3.2972     0.8986 C.3     
  17 C17          -12.7918     4.0455     1.1920 C.3     
  18 C18          -12.5929     5.4350     0.6254 C.ar    
  19 C19          -11.2462     5.6664     0.4172 C.ar    
  20 C20          -10.4480     4.4481     0.8295 C.3     
  21 C21          -13.5171     6.4193     0.3169 C.ar    
  22 C22          -13.0974     7.6300    -0.1981 C.ar    
  23 C23          -11.7503     7.8614    -0.4064 C.ar    
  24 C24          -10.8272     6.8813    -0.0990 C.ar    
  25 O25           -6.0891     3.3589     1.9182 O.3     
  26 C26          -10.1955     0.6776     0.4135 C.3     
  27 C27           -9.5176     0.5926     2.8168 C.3     
  28 C28           -1.5275    -1.1194    -1.3159 C.3     
  29 C29           -1.8213    -1.5967    -2.7709 C.3     
  30 C30           -0.9889    -0.6349    -3.6728 C.3     
  31 C31            0.4821    -1.0368    -3.4193 C.3     
  32 C32            0.3999    -2.2035    -2.3881 C.3     
  33 C33           -0.0565    -1.5213    -1.0624 C.3     
  34 C34           -0.9377    -2.8922    -2.8353 C.3     
  35 C35           -0.1574    -1.2691    -4.7897 C.3     
  36 C36            0.2816    -0.3757    -5.9211 C.2     
  37 O37           -0.0248     0.7931    -5.9218 O.2     
  38 O38            1.0131    -0.8783    -6.9281 O.3     
  39 H39            0.2648     0.7901    -1.9701 H       
  40 H40           -3.6757     0.2547    -0.4307 H       
  41 H41           -5.4872     1.2831    -0.6457 H       
  42 H42           -4.8350     1.2376     1.0098 H       
  43 H43           -6.7451     3.3721    -0.0408 H       
  44 H44           -7.7660     1.0818     0.1160 H       
  45 H45           -7.2831     1.0213     1.8282 H       
  46 H46           -8.5997     3.0373     2.1579 H       
  47 H47          -11.9727     1.6579     2.2043 H       
  48 H48          -10.9314     2.8973     2.9446 H       
  49 H49          -11.5324     2.7685    -0.0528 H       
  50 H50          -13.6265     3.5506     0.6955 H       
  51 H51          -12.9665     4.0967     2.2667 H       
  52 H52           -9.9922     4.6076     1.8068 H       
  53 H53           -9.6823     4.2281     0.0856 H       
  54 H54          -14.5696     6.2393     0.4794 H       
  55 H55          -13.8207     8.3952    -0.4383 H       
  56 H56          -11.4204     8.8075    -0.8092 H       
  57 H57           -9.7751     7.0628    -0.2619 H       
  58 H58           -5.7972     2.7853     2.6399 H       
  59 H59           -9.3594     0.0066     0.2165 H       
  60 H60          -11.0996     0.0922     0.5807 H       
  61 H61          -10.3422     1.3362    -0.4425 H       
  62 H62           -9.3028     1.1904     3.7025 H       
  63 H63          -10.3468    -0.0830     3.0267 H       
  64 H64           -8.6352     0.0122     2.5474 H       
  65 H65           -2.1879    -1.6232    -0.6101 H       
  66 H66           -2.8737    -1.7046    -3.0336 H       
  67 H67           -1.3086     0.4047    -3.7430 H       
  68 H68            1.2777    -0.3019    -3.2973 H       
  69 H69            1.2819    -2.8399    -2.3173 H       
  70 H70            0.5495    -0.6378    -0.8614 H       
  71 H71            0.0076    -2.2241    -0.2317 H       
  72 H72           -1.2670    -3.6475    -2.1218 H       
  73 H73           -0.8728    -3.2929    -3.8469 H       
  74 H74           -0.3904    -2.2971    -5.0673 H       
  75 H75            1.2712    -0.2666    -7.6312 H       
@<TRIPOS>BOND
   1    1    2 ar
   2    1    7 1
   3    1    6 ar
   4    2    3 ar
   5    2   39 1
   6    3    4 ar
   7    3   28 1
   8    4    5 ar
   9    4   40 1
  10    5    6 ar
  11    5    9 1
  12    6    8 1
  13    9   10 1
  14   10   11 1
  15   10   41 1
  16   10   42 1
  17   11   12 1
  18   11   25 1
  19   11   43 1
  20   12   13 1
  21   12   44 1
  22   12   45 1
  23   13   14 1
  24   13   46 1
  25   14   15 1
  26   14   26 1
  27   14   27 1
  28   15   16 1
  29   15   47 1
  30   15   48 1
  31   16   17 1
  32   16   20 1
  33   16   49 1
  34   17   18 1
  35   17   50 1
  36   17   51 1
  37   18   19 ar
  38   18   21 ar
  39   19   20 1
  40   19   24 ar
  41   20   52 1
  42   20   53 1
  43   21   22 ar
  44   21   54 1
  45   22   23 ar
  46   22   55 1
  47   23   24 ar
  48   23   56 1
  49   24   57 1
  50   25   58 1
  51   26   59 1
  52   26   60 1
  53   26   61 1
  54   27   62 1
  55   27   63 1
  56   27   64 1
  57   28   29 1
  58   28   33 1
  59   28   65 1
  60   29   30 1
  61   29   34 1
  62   29   66 1
  63   30   31 1
  64   30   35 1
  65   30   67 1
  66   31   32 1
  67   31   35 1
  68   31   68 1
  69   32   33 1
  70   32   34 1
  71   32   69 1
  72   33   70 1
  73   33   71 1
  74   34   72 1
  75   34   73 1
  76   35   36 1
  77   35   74 1
  78   36   37 2
  79   36   38 1
  80   38   75 1

#	End of record

