#	Name: ASD01900708
#	Creating user name:	WinNT
#	Creation time:	15. 06. 2019 19:52

#	Modifying user name:	WinNT
#	Modification time:	15. 06. 2019 19:52

#	Program:	/corina/corina34_cracker 3.40 0067  02.08.2006

@<TRIPOS>MOLECULE
ASD01900708
  47   50    0    0    0
SMALL
NO_CHARGES


@<TRIPOS>ATOM
   1 C1            -0.2334     2.3321    -0.4454 C.ar    
   2 C2            -0.3788     0.9533    -0.5350 C.ar    
   3 C3            -1.6334     0.3800    -0.5792 C.ar    
   4 C4            -2.7666     1.1811    -0.5339 C.ar    
   5 C5            -2.6177     2.5718    -0.4474 C.ar    
   6 O6            -3.9990     0.6284    -0.5652 O.3     
   7 C7            -5.0966     1.3619    -0.8204 C.2     
   8 C8            -5.1035     2.7178    -0.7593 C.2     
   9 C9            -3.8468     3.4050    -0.4142 C.2     
  10 C10           -6.3424     0.6654    -1.1814 C.2     
  11 N11           -7.4660     1.3770    -1.4444 N.2     
  12 C12           -8.5850     0.8021    -1.7663 C.2     
  13 N13           -8.6891    -0.5588    -1.8573 N.pl3   
  14 C14           -7.5789    -1.3441    -1.6012 C.2     
  15 C15           -6.3665    -0.7171    -1.2583 C.2     
  16 C16           -1.3542     3.1451    -0.3954 C.ar    
  17 C17           -9.7282    -1.3818    -2.1697 C.2     
  18 C18           -9.3042    -2.6681    -2.1179 C.2     
  19 C19           -7.9525    -2.6653    -1.7614 C.2     
  20 O20            1.0087     2.8832    -0.4011 O.3     
  21 C21            2.1191     1.9851    -0.4509 C.3     
  22 C22            3.4233     2.7828    -0.3903 C.3     
  23 N23            3.5143     3.4751     0.9021 N.3     
  24 C24            3.8677     2.5386     1.9773 C.3     
  25 C25            4.4716     4.5875     0.8372 C.3     
  26 N26           -3.8153     4.6774    -0.0961 N.2     
  27 O27           -2.6123     5.2612     0.3698 O.3     
  28 H28            0.4983     0.3242    -0.5708 H       
  29 H29           -1.7338    -0.6931    -0.6494 H       
  30 H30           -6.0054     3.2775    -0.9585 H       
  31 H31           -9.4533     1.4123    -1.9664 H       
  32 H32           -5.4804    -1.2991    -1.0523 H       
  33 H33           -1.2458     4.2174    -0.3254 H       
  34 H34          -10.7291    -1.0611    -2.4183 H       
  35 H35           -9.9057    -3.5426    -2.3173 H       
  36 H36           -7.3199    -3.5315    -1.6347 H       
  37 H37            2.0717     1.3014     0.3967 H       
  38 H38            2.0844     1.4155    -1.3796 H       
  39 H39            4.2695     2.1044    -0.4995 H       
  40 H40            3.4388     3.5157    -1.1970 H       
  41 H41            4.8319     2.0803     1.7577 H       
  42 H42            3.9283     3.0772     2.9230 H       
  43 H43            3.1049     1.7633     2.0491 H       
  44 H44            4.1725     5.2787     0.0492 H       
  45 H45            4.4859     5.1108     1.7933 H       
  46 H46            5.4665     4.1985     0.6210 H       
  47 H47           -2.6870     6.2024     0.5787 H       
@<TRIPOS>BOND
   1    1    2 ar
   2    1   20 1
   3    1   16 ar
   4    2    3 ar
   5    2   28 1
   6    3    4 ar
   7    3   29 1
   8    4    5 ar
   9    4    6 1
  10    5   16 ar
  11    5    9 1
  12    6    7 1
  13    7    8 2
  14    7   10 1
  15    8    9 1
  16    8   30 1
  17    9   26 2
  18   10   11 1
  19   10   15 2
  20   11   12 2
  21   12   13 1
  22   12   31 1
  23   13   14 1
  24   13   17 1
  25   14   15 1
  26   14   19 2
  27   15   32 1
  28   16   33 1
  29   17   18 2
  30   17   34 1
  31   18   19 1
  32   18   35 1
  33   19   36 1
  34   20   21 1
  35   21   22 1
  36   21   37 1
  37   21   38 1
  38   22   23 1
  39   22   39 1
  40   22   40 1
  41   23   24 1
  42   23   25 1
  43   24   41 1
  44   24   42 1
  45   24   43 1
  46   25   44 1
  47   25   45 1
  48   25   46 1
  49   26   27 1
  50   27   47 1

#	End of record

