#	Name: ASD09810011
#	Creating user name:	WinNT
#	Creation time:	15. 06. 2019 21:24

#	Modifying user name:	WinNT
#	Modification time:	15. 06. 2019 21:24

#	Program:	/corina/corina34_cracker 3.40 0067  02.08.2006

@<TRIPOS>MOLECULE
ASD09810011
  38   40    0    0    0
SMALL
NO_CHARGES


@<TRIPOS>ATOM
   1 C1            -0.0992     1.5286     0.5613 C.ar    
   2 C2            -0.1666     0.2574     1.1568 C.ar    
   3 C3             0.9382    -0.2686     1.7537 C.ar    
   4 C4             2.1402     0.4337     1.7855 C.ar    
   5 C5             2.2425     1.6685     1.2184 C.ar    
   6 C6             1.1245     2.2395     0.5951 C.ar    
   7 C7             1.1896     3.5191    -0.0054 C.ar    
   8 C8             0.0419     4.0146    -0.6007 C.ar    
   9 C9            -1.1212     3.2548    -0.5919 C.ar    
  10 N10           -1.1681     2.0668    -0.0366 N.ar    
  11 N11            2.3693     4.2561     0.0025 N.am    
  12 C12            2.3250     5.5999    -0.0917 C.2     
  13 C13            3.5945     6.4049     0.0140 C.3     
  14 O14            1.2634     6.1611    -0.2616 O.2     
  15 C15            3.2727     7.8708    -0.1230 C.2     
  16 C16            3.0986     8.5578     0.9601 C.2     
  17 C17            2.7643    10.0205     0.9834 C.3     
  18 C18            3.0755    10.6540    -0.3743 C.3     
  19 C19            2.4433     9.7870    -1.4705 C.3     
  20 C20            3.1801     8.4445    -1.5066 C.3     
  21 H21           -1.0916    -0.3000     1.1414 H       
  22 H22            0.8814    -1.2459     2.2099 H       
  23 H23            3.0019    -0.0056     2.2659 H       
  24 H24            3.1798     2.2042     1.2491 H       
  25 H25            0.0508     4.9875    -1.0694 H       
  26 H26           -2.0105     3.6511    -1.0592 H       
  27 H27            3.2238     3.8030     0.0759 H       
  28 H28            4.0598     6.2241     0.9830 H       
  29 H29            4.2803     6.1078    -0.7794 H       
  30 H30            3.1998     8.0463     1.9060 H       
  31 H31            1.7046    10.1455     1.2060 H       
  32 H32            3.3542    10.5137     1.7559 H       
  33 H33            2.6557    11.6591    -0.4146 H       
  34 H34            4.1549    10.6983    -0.5192 H       
  35 H35            1.3890     9.6244    -1.2466 H       
  36 H36            2.5437    10.2849    -2.4349 H       
  37 H37            4.1817     8.5928    -1.9103 H       
  38 H38            2.6345     7.7500    -2.1454 H       
@<TRIPOS>BOND
   1    1    2 ar
   2    1    6 ar
   3    1   10 ar
   4    2    3 ar
   5    2   21 1
   6    3    4 ar
   7    3   22 1
   8    4    5 ar
   9    4   23 1
  10    5    6 ar
  11    5   24 1
  12    6    7 ar
  13    7    8 ar
  14    7   11 1
  15    8    9 ar
  16    8   25 1
  17    9   10 ar
  18    9   26 1
  19   11   12 am
  20   11   27 1
  21   12   13 1
  22   12   14 2
  23   13   15 1
  24   13   28 1
  25   13   29 1
  26   15   16 2
  27   15   20 1
  28   16   17 1
  29   16   30 1
  30   17   18 1
  31   17   31 1
  32   17   32 1
  33   18   19 1
  34   18   33 1
  35   18   34 1
  36   19   20 1
  37   19   35 1
  38   19   36 1
  39   20   37 1
  40   20   38 1

#	End of record

