#	Name: ASD01882147
#	Creating user name:	WinNT
#	Creation time:	15. 06. 2019 19:44

#	Modifying user name:	WinNT
#	Modification time:	15. 06. 2019 19:44

#	Program:	/corina/corina34_cracker 3.40 0067  02.08.2006

@<TRIPOS>MOLECULE
ASD01882147
  59   63    0    0    0
SMALL
NO_CHARGES


@<TRIPOS>ATOM
   1 C1            -0.0081     1.3072    -0.2031 C.2     
   2 N2             0.0024    -0.0047    -0.0089 N.2     
   3 C3             1.1448    -0.6716     0.1856 C.2     
   4 C4             2.3758     0.0319     0.1856 C.2     
   5 C5             2.3523     1.3664    -0.0131 C.2     
   6 N6             1.1561     1.9986    -0.2070 N.pl3   
   7 O7            -1.0827     2.0978    -0.4158 O.3     
   8 C8             0.8709     3.4244    -0.4411 C.3     
   9 C9            -0.6603     3.4781    -0.5813 C.3     
  10 O10            1.1280    -1.8801     0.3627 O.2     
  11 C11            3.6366     2.1548    -0.0206 C.3     
  12 C12            3.7543     2.9583    -1.3276 C.3     
  13 C13            3.8175     4.4464    -0.9260 C.3     
  14 C14            4.3397     4.4244     0.5321 C.3     
  15 C15            3.6325     3.1827     1.1297 C.3     
  16 C16           -1.0492     3.9943    -1.9681 C.3     
  17 O17           -2.4730     4.0626    -2.0689 O.3     
  18 C18           -2.9877     4.5050    -3.2463 C.ar    
  19 C19           -4.3619     4.5964    -3.4132 C.ar    
  20 C20           -4.8826     5.0463    -4.6111 C.ar    
  21 C21           -4.0354     5.4053    -5.6431 C.ar    
  22 C22           -2.6655     5.3147    -5.4794 C.ar    
  23 C23           -2.1397     4.8712    -4.2813 C.ar    
  24 C24           -4.6062     5.8958    -6.9488 C.3     
  25 C25           -4.1061     7.3156    -7.2227 C.3     
  26 C26           -4.6855     7.8135    -8.5483 C.3     
  27 C27           -4.2372     6.8875    -9.6807 C.3     
  28 C28           -4.7373     5.4677    -9.4068 C.3     
  29 C29           -4.1579     4.9698    -8.0812 C.3     
  30 H30            3.3098    -0.4877     0.3412 H       
  31 H31            1.2003     4.0245     0.4071 H       
  32 H32            1.3491     3.7641    -1.3598 H       
  33 H33           -1.0954     4.1060     0.1962 H       
  34 H34            4.4880     1.4819     0.0820 H       
  35 H35            4.6632     2.6760    -1.8590 H       
  36 H36            2.8824     2.7780    -1.9565 H       
  37 H37            4.5103     4.9866    -1.5712 H       
  38 H38            2.8254     4.8957    -0.9691 H       
  39 H39            5.4223     4.2997     0.5529 H       
  40 H40            4.0438     5.3298     1.0620 H       
  41 H41            2.6105     3.4279     1.4185 H       
  42 H42            4.1903     2.8006     1.9847 H       
  43 H43           -0.6263     4.9877    -2.1178 H       
  44 H44           -0.6632     3.3166    -2.7295 H       
  45 H45           -5.0241     4.3157    -2.6075 H       
  46 H46           -5.9524     5.1173    -4.7416 H       
  47 H47           -2.0059     5.5950    -6.2873 H       
  48 H48           -1.0695     4.8052    -4.1523 H       
  49 H49           -5.6947     5.8987    -6.8912 H       
  50 H50           -4.4255     7.9752    -6.4159 H       
  51 H51           -3.0176     7.3126    -7.2802 H       
  52 H52           -5.7740     7.8165    -8.4907 H       
  53 H53           -4.3293     8.8250    -8.7434 H       
  54 H54           -4.6500     7.2423   -10.6251 H       
  55 H55           -3.1487     6.8846    -9.7383 H       
  56 H56           -5.8258     5.4707    -9.3493 H       
  57 H57           -4.4179     4.8081   -10.2136 H       
  58 H58           -3.0694     4.9668    -8.1388 H       
  59 H59           -4.5141     3.9583    -7.8861 H       
@<TRIPOS>BOND
   1    1    2 2
   2    1    6 1
   3    1    7 1
   4    2    3 1
   5    3    4 1
   6    3   10 2
   7    4    5 2
   8    4   30 1
   9    5    6 1
  10    5   11 1
  11    6    8 1
  12    7    9 1
  13    8    9 1
  14    8   31 1
  15    8   32 1
  16    9   16 1
  17    9   33 1
  18   11   12 1
  19   11   15 1
  20   11   34 1
  21   12   13 1
  22   12   35 1
  23   12   36 1
  24   13   14 1
  25   13   37 1
  26   13   38 1
  27   14   15 1
  28   14   39 1
  29   14   40 1
  30   15   41 1
  31   15   42 1
  32   16   17 1
  33   16   43 1
  34   16   44 1
  35   17   18 1
  36   18   19 ar
  37   18   23 ar
  38   19   20 ar
  39   19   45 1
  40   20   21 ar
  41   20   46 1
  42   21   22 ar
  43   21   24 1
  44   22   23 ar
  45   22   47 1
  46   23   48 1
  47   24   25 1
  48   24   29 1
  49   24   49 1
  50   25   26 1
  51   25   50 1
  52   25   51 1
  53   26   27 1
  54   26   52 1
  55   26   53 1
  56   27   28 1
  57   27   54 1
  58   27   55 1
  59   28   29 1
  60   28   56 1
  61   28   57 1
  62   29   58 1
  63   29   59 1

#	End of record

