#	Name: ASD01910437
#	Creating user name:	WinNT
#	Creation time:	15. 06. 2019 19:55

#	Modifying user name:	WinNT
#	Modification time:	15. 06. 2019 19:55

#	Program:	/corina/corina34_cracker 3.40 0067  02.08.2006

@<TRIPOS>MOLECULE
ASD01910437
  43   46    0    0    0
SMALL
NO_CHARGES


@<TRIPOS>ATOM
   1 C1             1.8519    -0.4981    -0.5470 C.ar    
   2 C2             2.1990    -1.8211    -0.7694 C.ar    
   3 C3             3.5267    -2.1714    -0.9549 C.ar    
   4 C4             4.5091    -1.2035    -0.9185 C.ar    
   5 C5             4.1645     0.1282    -0.6952 C.ar    
   6 C6             2.8279     0.4762    -0.5095 C.ar    
   7 F7             1.2401    -2.7722    -0.8049 F       
   8 C8             5.2178     1.1726    -0.6547 C.2     
   9 N9             5.0289     2.4956    -0.4485 N.2     
  10 C10            6.2227     3.0325    -0.4932 C.2     
  11 O11            7.0913     2.0425    -0.7211 O.3     
  12 N12            6.5032     0.9851    -0.8062 N.2     
  13 C13            6.5545     4.4924    -0.3207 C.3     
  14 C14            7.4912     4.6652     0.8772 C.3     
  15 C15            7.8026     6.1507     1.0733 C.3     
  16 C16            8.5093     6.6892    -0.1747 C.3     
  17 N17            7.6793     6.3969    -1.3513 N.am    
  18 C18            7.2470     5.0121    -1.5844 C.3     
  19 C19            7.3213     7.3802    -2.2006 C.2     
  20 C20            6.5918     7.0540    -3.4426 C.ar    
  21 O21            7.5989     8.5357    -1.9443 O.2     
  22 C22            7.0326     6.0200    -4.2766 C.ar    
  23 C23            6.3133     5.7539    -5.4285 C.ar    
  24 C24            5.1922     6.5101    -5.7183 C.ar    
  25 N25            4.7975     7.4801    -4.9157 N.ar    
  26 C26            5.4446     7.7696    -3.8032 C.ar    
  27 F27            5.0033     8.7719    -3.0121 F       
  28 H28            0.8154    -0.2287    -0.4073 H       
  29 H29            3.7930    -3.2037    -1.1280 H       
  30 H30            5.5438    -1.4775    -1.0625 H       
  31 H31            2.5565     1.5071    -0.3365 H       
  32 H32            5.6375     5.0562    -0.1497 H       
  33 H33            7.0104     4.2735     1.7736 H       
  34 H34            8.4179     4.1209     0.6950 H       
  35 H35            6.8741     6.6994     1.2309 H       
  36 H36            8.4510     6.2751     1.9406 H       
  37 H37            8.6446     7.7668    -0.0816 H       
  38 H38            9.4798     6.2050    -0.2827 H       
  39 H39            8.1146     4.3911    -1.8074 H       
  40 H40            6.5495     4.9831    -2.4215 H       
  41 H41            7.9119     5.4445    -4.0275 H       
  42 H42            6.6249     4.9635    -6.0953 H       
  43 H43            4.6303     6.3032    -6.6171 H       
@<TRIPOS>BOND
   1    1    2 ar
   2    1    6 ar
   3    1   28 1
   4    2    3 ar
   5    2    7 1
   6    3    4 ar
   7    3   29 1
   8    4    5 ar
   9    4   30 1
  10    5    6 ar
  11    5    8 1
  12    6   31 1
  13    8    9 1
  14    8   12 2
  15    9   10 2
  16   10   11 1
  17   10   13 1
  18   11   12 1
  19   13   14 1
  20   13   18 1
  21   13   32 1
  22   14   15 1
  23   14   33 1
  24   14   34 1
  25   15   16 1
  26   15   35 1
  27   15   36 1
  28   16   17 1
  29   16   37 1
  30   16   38 1
  31   17   18 1
  32   17   19 am
  33   18   39 1
  34   18   40 1
  35   19   20 1
  36   19   21 2
  37   20   22 ar
  38   20   26 ar
  39   22   23 ar
  40   22   41 1
  41   23   24 ar
  42   23   42 1
  43   24   25 ar
  44   24   43 1
  45   25   26 ar
  46   26   27 1

#	End of record

