#	Name: ASD01913026
#	Creating user name:	WinNT
#	Creation time:	15. 06. 2019 20:00

#	Modifying user name:	WinNT
#	Modification time:	15. 06. 2019 20:00

#	Program:	/corina/corina34_cracker 3.40 0067  02.08.2006

@<TRIPOS>MOLECULE
ASD01913026
  31   31    0    0    0
SMALL
NO_CHARGES


@<TRIPOS>ATOM
   1 C1            -0.0169     1.3954     0.0097 C.ar    
   2 C2             0.0021    -0.0041     0.0020 C.ar    
   3 C3            -1.2591    -0.7596     0.0095 C.2     
   4 C4            -2.5761    -0.0272     0.0255 C.3     
   5 O5            -1.2396    -1.9721     0.0028 O.2     
   6 C6            -3.7056    -1.0249     0.0305 C.2     
   7 C7            -5.1342    -0.5455     0.0462 C.3     
   8 O8            -3.4658    -2.2084     0.0220 O.2     
   9 C9            -5.6309    -0.3755    -1.3909 C.3     
  10 C10           -6.0085    -1.5715     0.7700 C.3     
  11 C11            1.2266    -0.6809    -0.0133 C.ar    
  12 C12            2.4048     0.0331    -0.0207 C.ar    
  13 C13            2.3789     1.4198    -0.0130 C.ar    
  14 C14            1.1682     2.0971     0.0022 C.ar    
  15 F15            3.5378     2.1141    -0.0204 F       
  16 C16            3.7246    -0.6942    -0.0367 C.3     
  17 H17           -0.9588     1.9238     0.0170 H       
  18 H18           -2.6357     0.5936     0.9194 H       
  19 H19           -2.6520     0.6032    -0.8604 H       
  20 H20           -5.1908     0.4110     0.5657 H       
  21 H21           -5.0081     0.3554    -1.9066 H       
  22 H22           -5.5743    -1.3321    -1.9105 H       
  23 H23           -6.6642    -0.0288    -1.3796 H       
  24 H24           -5.6546    -1.6926     1.7938 H       
  25 H25           -7.0418    -1.2248     0.7813 H       
  26 H26           -5.9519    -2.5281     0.2505 H       
  27 H27            1.2481    -1.7607    -0.0190 H       
  28 H28            1.1549     3.1770     0.0085 H       
  29 H29            4.0331    -0.8644    -1.0682 H       
  30 H30            4.4771    -0.0927     0.4731 H       
  31 H31            3.6180    -1.6516     0.4733 H       
@<TRIPOS>BOND
   1    1    2 ar
   2    1   14 ar
   3    1   17 1
   4    2    3 1
   5    2   11 ar
   6    3    4 1
   7    3    5 2
   8    4    6 1
   9    4   18 1
  10    4   19 1
  11    6    7 1
  12    6    8 2
  13    7    9 1
  14    7   10 1
  15    7   20 1
  16    9   21 1
  17    9   22 1
  18    9   23 1
  19   10   24 1
  20   10   25 1
  21   10   26 1
  22   11   12 ar
  23   11   27 1
  24   12   13 ar
  25   12   16 1
  26   13   14 ar
  27   13   15 1
  28   14   28 1
  29   16   29 1
  30   16   30 1
  31   16   31 1

#	End of record

