#	Name: ASD04570049
#	Creating user name:	WinNT
#	Creation time:	15. 06. 2019 20:49

#	Modifying user name:	WinNT
#	Modification time:	15. 06. 2019 20:49

#	Program:	/corina/corina34_cracker 3.40 0067  02.08.2006

@<TRIPOS>MOLECULE
ASD04570049
 325  325    0    0    0
SMALL
NO_CHARGES


@<TRIPOS>ATOM
   1 C1            -0.0187     1.5258     0.0104 C.3     
   2 C2             0.0021    -0.0041     0.0020 C.3     
   3 C3            -1.4333    -0.5336     0.0129 C.3     
   4 C4            -1.4126    -2.0635     0.0045 C.3     
   5 C5            -2.8479    -2.5931     0.0153 C.3     
   6 C6            -2.8272    -4.1229     0.0069 C.3     
   7 C7            -4.2626    -4.6525     0.0178 C.3     
   8 C8            -4.2418    -6.1823     0.0094 C.3     
   9 C9            -5.6772    -6.7119     0.0202 C.3     
  10 C10           -5.6565    -8.2417     0.0118 C.3     
  11 C11           -7.0918    -8.7713     0.0227 C.3     
  12 C12           -7.0711   -10.3012     0.0143 C.3     
  13 C13           -8.5065   -10.8307     0.0251 C.3     
  14 C14           -8.4857   -12.3606     0.0167 C.3     
  15 C15           -9.8995   -12.8822     0.0274 C.2     
  16 N16          -10.1278   -14.2105     0.0224 N.am    
  17 O17          -10.8319   -12.1067     0.0405 O.2     
  18 C18          -11.5022   -14.7176     0.0328 C.3     
  19 C19          -11.4818   -16.2244     0.0246 C.2     
  20 N20          -12.6397   -16.9141     0.0319 N.am    
  21 O21          -10.4234   -16.8164     0.0113 O.2     
  22 C22          -12.6198   -18.3789     0.0239 C.3     
  23 C23          -14.0336   -18.9006     0.0345 C.2     
  24 N24          -14.2619   -20.2288     0.0296 N.am    
  25 O25          -14.9660   -18.1251     0.0476 O.2     
  26 C26          -15.6363   -20.7359     0.0400 C.3     
  27 C27          -15.6677   -22.1146    -0.5676 C.2     
  28 O28          -14.6429   -22.6236    -0.9697 O.2     
  29 N29          -16.8345   -22.7821    -0.6641 N.am    
  30 C30          -16.1445   -20.8022     1.4816 C.3     
  31 C31          -16.2295   -19.4087     2.0489 C.ar    
  32 C32          -17.3963   -18.6790     1.9152 C.ar    
  33 C33          -16.8650   -24.1224    -1.2548 C.3     
  34 C34          -16.5289   -25.1603    -0.1821 C.3     
  35 C35          -18.2404   -24.3973    -1.8061 C.2     
  36 O36          -19.1095   -23.5563    -1.7147 O.2     
  37 N37          -18.5045   -25.5775    -2.4008 N.am    
  38 C38          -15.0873   -24.9583     0.2890 C.3     
  39 C39          -14.7562   -25.9805     1.3456 C.2     
  40 N40          -13.5323   -25.9942     1.9100 N.am    
  41 C41          -19.8415   -25.8447    -2.9368 C.3     
  42 C42          -19.9467   -25.2745    -4.3527 C.3     
  43 C43          -20.0793   -27.3323    -2.9754 C.2     
  44 O44          -19.2168   -28.0943    -2.5928 O.2     
  45 N45          -21.2503   -27.8159    -3.4350 N.am    
  46 C46          -21.4814   -29.2621    -3.4724 C.3     
  47 C47          -22.9850   -29.5399    -3.4170 C.3     
  48 C48          -20.9038   -29.8375    -4.7671 C.3     
  49 C49          -23.5399   -29.0761    -2.0688 C.3     
  50 C50          -25.0435   -29.3539    -2.0134 C.3     
  51 C51          -17.4766   -17.4013     2.4344 C.ar    
  52 C52          -16.3853   -16.8505     3.0903 C.ar    
  53 C53          -15.2157   -17.5846     3.2231 C.ar    
  54 C54          -15.1423   -18.8640     2.7071 C.ar    
  55 O55          -16.4617   -15.5936     3.6015 O.3     
  56 O56          -15.5910   -26.7909     1.6881 O.2     
  57 C57          -25.5985   -28.8901    -0.6651 C.3     
  58 N58          -27.0421   -29.1568    -0.6119 N.3     
  59 C59            1.4167     2.0553    -0.0004 C.3     
  60 H60           -9.3821   -14.8307     0.0120 H       
  61 C61          -19.8295   -23.7500    -4.2987 C.3     
  62 C62          -19.9346   -23.1799    -5.7146 C.3     
  63 C63          -19.8174   -21.6553    -5.6605 C.3     
  64 N64          -19.9183   -21.1079    -7.0200 N.3     
  65 H65           -0.5459     1.8868    -0.8726 H       
  66 H66           -0.5289     1.8773     0.9072 H       
  67 H67            0.5123    -0.3556    -0.8948 H       
  68 H68            0.5293    -0.3651     0.8851 H       
  69 H69           -1.9435    -0.1821     0.9097 H       
  70 H70           -1.9605    -0.1726    -0.8702 H       
  71 H71           -0.9024    -2.4150    -0.8923 H       
  72 H72           -0.8854    -2.4246     0.8875 H       
  73 H73           -3.3581    -2.2415     0.9121 H       
  74 H74           -3.3751    -2.2320    -0.8677 H       
  75 H75           -2.3170    -4.4744    -0.8899 H       
  76 H76           -2.3000    -4.4840     0.8900 H       
  77 H77           -4.7728    -4.3010     0.9146 H       
  78 H78           -4.7898    -4.2914    -0.8653 H       
  79 H79           -3.7316    -6.5338    -0.8874 H       
  80 H80           -3.7146    -6.5434     0.8924 H       
  81 H81           -6.1874    -6.3604     0.9170 H       
  82 H82           -6.2044    -6.3508    -0.8628 H       
  83 H83           -5.1463    -8.5933    -0.8850 H       
  84 H84           -5.1293    -8.6028     0.8949 H       
  85 H85           -7.6020    -8.4198     0.9195 H       
  86 H86           -7.6190    -8.4102    -0.8604 H       
  87 H87           -6.5609   -10.6527    -0.8825 H       
  88 H88           -6.5439   -10.6622     0.8973 H       
  89 H89           -9.0167   -10.4792     0.9219 H       
  90 H90           -9.0337   -10.4697    -0.8579 H       
  91 H91           -7.9755   -12.7121    -0.8801 H       
  92 H92           -7.9586   -12.7217     0.8998 H       
  93 H93          -12.0124   -14.3660     0.9296 H       
  94 H94          -12.0294   -14.3565    -0.8502 H       
  95 H95          -13.4862   -16.4406     0.0425 H       
  96 H96          -12.1096   -18.7305    -0.8729 H       
  97 H97          -12.0926   -18.7400     0.9069 H       
  98 H98          -13.5162   -20.8491     0.0191 H       
  99 H99          -16.2741   -20.0688    -0.5398 H       
 100 H100         -17.6542   -22.3751    -0.3425 H       
 101 H101         -17.1328   -21.2619     1.4977 H       
 102 H102         -15.4570   -21.3977     2.0822 H       
 103 H103         -18.2455   -19.1081     1.4042 H       
 104 H104         -16.1324   -24.1815    -2.0597 H       
 105 H105         -17.2072   -25.0422     0.6630 H       
 106 H106         -16.6381   -26.1617    -0.5985 H       
 107 H107         -17.8094   -26.2501    -2.4740 H       
 108 H108         -14.4090   -25.0764    -0.5560 H       
 109 H109         -14.9781   -23.9569     0.7054 H       
 110 H110         -12.8646   -25.3461     1.6360 H       
 111 H111         -13.3192   -26.6522     2.5901 H       
 112 H112         -20.5895   -25.3736    -2.2990 H       
 113 H113         -19.1430   -25.6791    -4.9679 H       
 114 H114         -20.9088   -25.5499    -4.7848 H       
 115 H115         -21.9401   -27.2064    -3.7409 H       
 116 H116         -20.9937   -29.7302    -2.6174 H       
 117 H117         -23.4842   -28.9990    -4.2209 H       
 118 H118         -23.1614   -30.6091    -3.5342 H       
 119 H119         -19.8327   -29.6396    -4.8066 H       
 120 H120         -21.0758   -30.9135    -4.7950 H       
 121 H121         -21.3916   -29.3693    -5.6221 H       
 122 H122         -23.0407   -29.6170    -1.2649 H       
 123 H123         -23.3635   -28.0069    -1.9516 H       
 124 H124         -25.5428   -28.8130    -2.8173 H       
 125 H125         -25.2200   -30.4231    -2.1305 H       
 126 H126         -18.3881   -16.8317     2.3294 H       
 127 H127         -14.3647   -17.1580     3.7332 H       
 128 H128         -14.2321   -19.4361     2.8105 H       
 129 H129         -16.7777   -15.5590     4.5147 H       
 130 H130         -25.0992   -29.4310     0.1388 H       
 131 H131         -25.4220   -27.8209    -0.5480 H       
 132 H132         -27.2361   -30.1322    -0.7824 H       
 133 H133         -27.4325   -28.8592     0.2696 H       
 134 H134           1.4019     3.1452     0.0056 H       
 135 H135           1.9439     1.6943     0.8826 H       
 136 H136           1.9269     1.7038    -0.8972 H       
 137 H137         -20.6332   -23.3454    -3.6835 H       
 138 H138         -18.8674   -23.4746    -3.8666 H       
 139 H139         -19.1309   -23.5845    -6.3298 H       
 140 H140         -20.8967   -23.4552    -6.1466 H       
 141 H141         -20.6211   -21.2507    -5.0453 H       
 142 H142         -18.8553   -21.3800    -5.2285 H       
 143 H143         -19.8438   -20.1017    -7.0111 H       
 144 H144         -19.2236   -21.5167    -7.6269 H       
 145 C145          20.2229    30.0082    28.6741 C.3     
 146 C146          19.5381    29.9599    27.3325 C.2     
 147 N147          20.1425    29.3585    26.2887 N.am    
 148 C148          19.5109    29.3765    24.9669 C.3     
 149 C149          19.9958    28.1981    24.1625 C.2     
 150 N150          19.5462    28.0090    22.9060 N.am    
 151 C151          20.0176    26.8634    22.1240 C.3     
 152 C152          19.8975    27.1748    20.6544 C.2     
 153 N153          20.2750    26.2607    19.7388 N.am    
 154 O154          19.4611    28.2480    20.2957 O.2     
 155 C155          20.1582    26.5634    18.3102 C.3     
 156 C156          21.1499    25.7321    17.5378 C.2     
 157 C157          18.7407    26.2392    17.8344 C.3     
 158 N158          21.2231    25.8438    16.1967 N.am    
 159 O159          21.8823    24.9623    18.1232 O.2     
 160 C160          22.0722    24.9920    15.4646 C.2     
 161 C161          21.9037    23.5396    15.5506 C.2     
 162 N162          20.8745    23.0208    16.2493 N.am    
 163 O163          22.6932    22.8011    14.9911 O.2     
 164 C164          20.6458    21.5737    16.2508 C.3     
 165 C165          19.2016    21.2931    15.9244 C.2     
 166 O166          18.4385    22.2114    15.7115 O.2     
 167 N167          18.7580    20.0216    15.8691 N.am    
 168 C168          17.3540    19.7488    15.5519 C.3     
 169 C169          17.1698    19.7242    14.0332 C.3     
 170 C170          16.9593    18.4132    16.1275 C.2     
 171 O171          17.7708    17.7541    16.7422 O.2     
 172 N172          15.7045    17.9511    15.9591 N.am    
 173 C173          15.3208    16.6527    16.5187 C.3     
 174 C174          14.9024    16.8305    17.9796 C.3     
 175 C175          14.1671    16.0874    15.7310 C.2     
 176 O176          13.7103    16.7080    14.7944 O.2     
 177 N177          13.6429    14.8922    16.0673 N.am    
 178 C178          12.5213    14.3426    15.3015 C.3     
 179 C179          11.2073    14.9071    15.8452 C.3     
 180 C180          12.5139    12.8410    15.4290 C.2     
 181 O181          13.3619    12.2847    16.0941 O.2     
 182 N182          11.5648    12.1163    14.8040 N.am    
 183 C183          11.1618    16.4171    15.6026 C.3     
 184 C184           9.8478    16.9816    16.1462 C.3     
 185 N185           9.8042    18.4274    15.9139 N.pl3   
 186 C186           8.7117    19.1564    16.3204 C.2     
 187 C187          23.0394    25.5129    14.6852 C.2     
 188 C188          24.0242    24.6030    13.9971 C.3     
 189 O189          23.1267    26.8507    14.5203 O.3     
 190 C190          20.9758    21.0067    17.6330 C.3     
 191 C191          22.4205    21.2859    17.9587 C.2     
 192 O192          22.9471    20.8403    19.1101 O.3     
 193 O193          23.1047    21.9107    17.1833 O.2     
 194 C194          17.4507    21.1158    13.4628 C.3     
 195 C195          17.2665    21.0912    11.9441 C.3     
 196 C196          17.5473    22.4829    11.3737 C.3     
 197 N197          17.3705    22.4592     9.9156 N.3     
 198 C198          16.0902    17.2791    18.7913 C.ar    
 199 C199          16.3525    18.6281    18.9432 C.ar    
 200 C200          16.9126    16.3411    19.3876 C.ar    
 201 C201          18.0018    16.7497    20.1325 C.ar    
 202 C202          18.2702    18.1026    20.2821 C.ar    
 203 C203          17.4408    19.0419    19.6867 C.ar    
 204 N204           8.6708    20.5132    16.1024 N.pl3   
 205 N205           7.7147    18.5611    16.9124 N.2     
 206 C206          19.1682    25.6349    22.4561 C.3     
 207 O207          17.8227    25.8565    22.0287 O.3     
 208 O208          20.7907    27.4198    24.6456 O.2     
 209 C209          19.8785    30.6737    24.2437 C.3     
 210 C210          19.2789    31.8640    24.9950 C.3     
 211 C211          19.6464    33.1612    24.2717 C.3     
 212 N212          19.0723    34.3010    24.9911 N.pl3   
 213 C213          19.2712    35.5790    24.5250 C.2     
 214 N214          18.7324    36.6486    25.2001 N.pl3   
 215 N215          19.9707    35.7766    23.4430 N.2     
 216 O216          18.4432    30.4623    27.1922 O.2     
 217 C217          11.5576    10.6566    14.9280 C.3     
 218 C218          12.4850    10.0606    13.9005 C.2     
 219 C219          10.1385    10.1324    14.6993 C.3     
 220 C220           9.2130    10.6729    15.7911 C.3     
 221 N221          12.6396     8.7238    13.8271 N.am    
 222 O222          13.0922    10.7839    13.1396 O.2     
 223 C223           7.7679    10.2831    15.4738 C.3     
 224 O224          19.3409    18.5071    21.0148 O.3     
 225 N225          19.6898    31.1276    29.4545 N.am    
 226 C226          19.9703    28.6982    29.4231 C.3     
 227 C227          20.4084    31.6424    30.4719 C.2     
 228 C228          20.6285    27.5429    28.6662 C.3     
 229 C229          22.1434    27.7540    28.6304 C.3     
 230 C230          20.3140    26.2240    29.3751 C.3     
 231 C231           9.6166    10.0788    17.1420 C.3     
 232 C232          19.9126    32.8640    31.2020 C.3     
 233 O233          21.4539    31.1227    30.7998 O.2     
 234 H234          21.2949    30.1436    28.5302 H       
 235 H235          20.9955    28.9138    26.4126 H       
 236 H236          18.4284    29.3181    25.0806 H       
 237 H237          18.9105    28.6314    22.5196 H       
 238 H238          21.0604    26.6610    22.3684 H       
 239 H239          20.6241    25.4024    20.0257 H       
 240 H240          20.3640    27.6210    18.1449 H       
 241 H241          18.5350    25.1816    17.9997 H       
 242 H242          18.0235    26.8405    18.3930 H       
 243 H243          18.6539    26.4644    16.7714 H       
 244 H244          20.6908    26.5110    15.7358 H       
 245 H245          20.2853    23.6055    16.7510 H       
 246 H246          21.2851    21.1040    15.5033 H       
 247 H247          19.3683    19.2872    16.0394 H       
 248 H248          16.7261    20.5294    15.9814 H       
 249 H249          17.8621    19.0054    13.5948 H       
 250 H250          16.1463    19.4341    13.7960 H       
 251 H251          15.0554    18.4783    15.4675 H       
 252 H252          16.1678    15.9688    16.4640 H       
 253 H253          14.1145    17.5811    18.0431 H       
 254 H254          14.5330    15.8821    18.3697 H       
 255 H255          14.0081    14.3958    16.8163 H       
 256 H256          12.6284    14.6176    14.2522 H       
 257 H257          10.3692    14.4318    15.3355 H       
 258 H258          11.1417    14.7089    16.9150 H       
 259 H259          10.8866    12.5613    14.2721 H       
 260 H260          11.9999    16.8924    16.1122 H       
 261 H261          11.2274    16.6153    14.5327 H       
 262 H262           9.0097    16.5063    15.6366 H       
 263 H263           9.7822    16.7834    17.2160 H       
 264 H264          10.5462    18.8704    15.4733 H       
 265 H265          23.5911    24.2362    13.0665 H       
 266 H266          24.9384    25.1553    13.7795 H       
 267 H267          24.2554    23.7595    14.6476 H       
 268 H268          22.5031    27.3551    15.0604 H       
 269 H269          20.3373    21.4773    18.3807 H       
 270 H270          20.8045    19.9303    17.6345 H       
 271 H271          23.8779    21.0440    19.2750 H       
 272 H272          16.7584    21.8347    13.9011 H       
 273 H273          18.4742    21.4060    13.7000 H       
 274 H274          17.9587    20.3724    11.5058 H       
 275 H275          16.2429    20.8011    11.7069 H       
 276 H276          16.8551    23.2017    11.8120 H       
 277 H277          18.5709    22.7730    11.6109 H       
 278 H278          16.4489    22.1310     9.6684 H       
 279 H279          17.5504    23.3675     9.5147 H       
 280 H280          15.7063    19.3589    18.4798 H       
 281 H281          16.7030    15.2880    19.2712 H       
 282 H282          18.6436    16.0166    20.5984 H       
 283 H283          17.6476    20.0956    19.8017 H       
 284 H284           9.4128    20.9562    15.6617 H       
 285 H285           7.9000    21.0275    16.3892 H       
 286 H286           6.9439    19.0754    17.1992 H       
 287 H287          19.5737    24.7632    21.9425 H       
 288 H288          19.1839    25.4625    23.5323 H       
 289 H289          17.2263    25.1167    22.2079 H       
 290 H290          20.9632    30.7753    24.2085 H       
 291 H291          19.4828    30.6482    23.2283 H       
 292 H292          18.1942    31.7624    25.0301 H       
 293 H293          19.6745    31.8895    26.0103 H       
 294 H294          20.7311    33.2628    24.2366 H       
 295 H295          19.2508    33.1358    23.2564 H       
 296 H296          18.5518    34.1539    25.7963 H       
 297 H297          18.2119    36.5016    26.0053 H       
 298 H298          18.8728    37.5503    24.8712 H       
 299 H299          20.1111    36.6783    23.1142 H       
 300 H300          11.8924    10.3751    15.9264 H       
 301 H301           9.7817    10.4633    13.7239 H       
 302 H302          10.1436     9.0430    14.7338 H       
 303 H303           9.2956    11.7590    15.8326 H       
 304 H304          12.1540     8.1452    14.4357 H       
 305 H305          13.2365     8.3401    13.1658 H       
 306 H306           7.7028     9.2026    15.3456 H       
 307 H307           7.1199    10.5913    16.2943 H       
 308 H308           7.4514    10.7776    14.5555 H       
 309 H309          20.1546    18.6044    20.5015 H       
 310 H310          18.8197    31.4982    29.2390 H       
 311 H311          20.3946    28.7648    30.4249 H       
 312 H312          18.8971    28.5214    29.4941 H       
 313 H313          20.2422    27.5090    27.6475 H       
 314 H314          22.3724    28.6449    28.0456 H       
 315 H315          22.5168    27.8806    29.6466 H       
 316 H316          22.6204    26.8870    28.1734 H       
 317 H317          19.2348    26.0735    29.4006 H       
 318 H318          20.7830    25.4009    28.8358 H       
 319 H319          20.7004    26.2579    30.3937 H       
 320 H320          10.6461    10.3565    17.3681 H       
 321 H321           8.9572    10.4639    17.9199 H       
 322 H322           9.5340     8.9927    17.1006 H       
 323 H323          18.9653    33.1861    30.7698 H       
 324 H324          19.7684    32.6240    32.2555 H       
 325 H325          20.6456    33.6653    31.1090 H       
@<TRIPOS>BOND
   1    1    2 1
   2    1   59 1
   3    1   65 1
   4    1   66 1
   5    2    3 1
   6    2   67 1
   7    2   68 1
   8    3    4 1
   9    3   69 1
  10    3   70 1
  11    4    5 1
  12    4   71 1
  13    4   72 1
  14    5    6 1
  15    5   73 1
  16    5   74 1
  17    6    7 1
  18    6   75 1
  19    6   76 1
  20    7    8 1
  21    7   77 1
  22    7   78 1
  23    8    9 1
  24    8   79 1
  25    8   80 1
  26    9   10 1
  27    9   81 1
  28    9   82 1
  29   10   11 1
  30   10   83 1
  31   10   84 1
  32   11   12 1
  33   11   85 1
  34   11   86 1
  35   12   13 1
  36   12   87 1
  37   12   88 1
  38   13   14 1
  39   13   89 1
  40   13   90 1
  41   14   15 1
  42   14   91 1
  43   14   92 1
  44   15   16 am
  45   15   17 2
  46   16   18 1
  47   16   60 1
  48   18   19 1
  49   18   93 1
  50   18   94 1
  51   19   20 am
  52   19   21 2
  53   20   22 1
  54   20   95 1
  55   22   23 1
  56   22   96 1
  57   22   97 1
  58   23   24 am
  59   23   25 2
  60   24   26 1
  61   24   98 1
  62   26   27 1
  63   26   30 1
  64   26   99 1
  65   27   28 2
  66   27   29 am
  67   29   33 1
  68   29  100 1
  69   30   31 1
  70   30  101 1
  71   30  102 1
  72   31   32 ar
  73   31   54 ar
  74   32   51 ar
  75   32  103 1
  76   33   34 1
  77   33   35 1
  78   33  104 1
  79   34   38 1
  80   34  105 1
  81   34  106 1
  82   35   36 2
  83   35   37 am
  84   37   41 1
  85   37  107 1
  86   38   39 1
  87   38  108 1
  88   38  109 1
  89   39   40 am
  90   39   56 2
  91   40  110 1
  92   40  111 1
  93   41   42 1
  94   41   43 1
  95   41  112 1
  96   42   61 1
  97   42  113 1
  98   42  114 1
  99   43   44 2
 100   43   45 am
 101   45   46 1
 102   45  115 1
 103   46   47 1
 104   46   48 1
 105   46  116 1
 106   47   49 1
 107   47  117 1
 108   47  118 1
 109   48  119 1
 110   48  120 1
 111   48  121 1
 112   49   50 1
 113   49  122 1
 114   49  123 1
 115   50   57 1
 116   50  124 1
 117   50  125 1
 118   51   52 ar
 119   51  126 1
 120   52   53 ar
 121   52   55 1
 122   53   54 ar
 123   53  127 1
 124   54  128 1
 125   55  129 1
 126   57   58 1
 127   57  130 1
 128   57  131 1
 129   58  132 1
 130   58  133 1
 131   59  134 1
 132   59  135 1
 133   59  136 1
 134   61   62 1
 135   61  137 1
 136   61  138 1
 137   62   63 1
 138   62  139 1
 139   62  140 1
 140   63   64 1
 141   63  141 1
 142   63  142 1
 143   64  143 1
 144   64  144 1
 145  145  146 1
 146  145  225 1
 147  145  226 1
 148  145  234 1
 149  146  147 am
 150  146  216 2
 151  147  148 1
 152  147  235 1
 153  148  149 1
 154  148  209 1
 155  148  236 1
 156  149  150 am
 157  149  208 2
 158  150  151 1
 159  150  237 1
 160  151  152 1
 161  151  206 1
 162  151  238 1
 163  152  153 am
 164  152  154 2
 165  153  155 1
 166  153  239 1
 167  155  156 1
 168  155  157 1
 169  155  240 1
 170  156  158 am
 171  156  159 2
 172  157  241 1
 173  157  242 1
 174  157  243 1
 175  158  160 1
 176  158  244 1
 177  160  161 1
 178  160  187 2
 179  161  162 am
 180  161  163 2
 181  162  164 1
 182  162  245 1
 183  164  165 1
 184  164  190 1
 185  164  246 1
 186  165  166 2
 187  165  167 am
 188  167  168 1
 189  167  247 1
 190  168  169 1
 191  168  170 1
 192  168  248 1
 193  169  194 1
 194  169  249 1
 195  169  250 1
 196  170  171 2
 197  170  172 am
 198  172  173 1
 199  172  251 1
 200  173  174 1
 201  173  175 1
 202  173  252 1
 203  174  198 1
 204  174  253 1
 205  174  254 1
 206  175  176 2
 207  175  177 am
 208  177  178 1
 209  177  255 1
 210  178  179 1
 211  178  180 1
 212  178  256 1
 213  179  183 1
 214  179  257 1
 215  179  258 1
 216  180  181 2
 217  180  182 am
 218  182  217 1
 219  182  259 1
 220  183  184 1
 221  183  260 1
 222  183  261 1
 223  184  185 1
 224  184  262 1
 225  184  263 1
 226  185  186 1
 227  185  264 1
 228  186  204 1
 229  186  205 2
 230  187  188 1
 231  187  189 1
 232  188  265 1
 233  188  266 1
 234  188  267 1
 235  189  268 1
 236  190  191 1
 237  190  269 1
 238  190  270 1
 239  191  192 1
 240  191  193 2
 241  192  271 1
 242  194  195 1
 243  194  272 1
 244  194  273 1
 245  195  196 1
 246  195  274 1
 247  195  275 1
 248  196  197 1
 249  196  276 1
 250  196  277 1
 251  197  278 1
 252  197  279 1
 253  198  199 ar
 254  198  200 ar
 255  199  203 ar
 256  199  280 1
 257  200  201 ar
 258  200  281 1
 259  201  202 ar
 260  201  282 1
 261  202  203 ar
 262  202  224 1
 263  203  283 1
 264  204  284 1
 265  204  285 1
 266  205  286 1
 267  206  207 1
 268  206  287 1
 269  206  288 1
 270  207  289 1
 271  209  210 1
 272  209  290 1
 273  209  291 1
 274  210  211 1
 275  210  292 1
 276  210  293 1
 277  211  212 1
 278  211  294 1
 279  211  295 1
 280  212  213 1
 281  212  296 1
 282  213  214 1
 283  213  215 2
 284  214  297 1
 285  214  298 1
 286  215  299 1
 287  217  218 1
 288  217  219 1
 289  217  300 1
 290  218  221 am
 291  218  222 2
 292  219  220 1
 293  219  301 1
 294  219  302 1
 295  220  223 1
 296  220  231 1
 297  220  303 1
 298  221  304 1
 299  221  305 1
 300  223  306 1
 301  223  307 1
 302  223  308 1
 303  224  309 1
 304  225  227 am
 305  225  310 1
 306  226  228 1
 307  226  311 1
 308  226  312 1
 309  227  232 1
 310  227  233 2
 311  228  229 1
 312  228  230 1
 313  228  313 1
 314  229  314 1
 315  229  315 1
 316  229  316 1
 317  230  317 1
 318  230  318 1
 319  230  319 1
 320  231  320 1
 321  231  321 1
 322  231  322 1
 323  232  323 1
 324  232  324 1
 325  232  325 1

#	End of record

