#	Name: ASD01811404
#	Creating user name:	WinNT
#	Creation time:	15. 06. 2019 19:26

#	Modifying user name:	WinNT
#	Modification time:	15. 06. 2019 19:26

#	Program:	/corina/corina34_cracker 3.40 0067  02.08.2006

@<TRIPOS>MOLECULE
ASD01811404
  61   65    0    0    0
SMALL
NO_CHARGES


@<TRIPOS>ATOM
   1 N1            -0.6538     2.8907     3.4832 N.am    
   2 C2            -0.8633     2.1408     4.7303 C.3     
   3 C3             0.5287     1.7465     5.2673 C.3     
   4 C4             1.4673     2.7817     4.5930 C.3     
   5 C5             0.7933     2.9577     3.2094 C.3     
   6 C6            -1.6241     3.4236     2.7146 C.2     
   7 O7            -2.7903     3.3017     3.0363 O.2     
   8 N8            -1.3019     4.0917     1.5893 N.am    
   9 C9            -2.3110     4.5546     0.7368 C.ar    
  10 C10           -2.1292     5.7309     0.0193 C.ar    
  11 C11           -3.1224     6.1920    -0.8241 C.ar    
  12 C12           -4.3014     5.4874    -0.9594 C.ar    
  13 C13           -4.4937     4.3049    -0.2432 C.ar    
  14 C14           -3.4891     3.8369     0.6040 C.ar    
  15 C15           -0.8450     6.5066     0.1618 C.3     
  16 C16           -5.7558     3.5480    -0.3862 C.2     
  17 O17           -5.7273     2.3431    -0.5441 O.2     
  18 C18           -9.2161     5.3725     0.8356 C.3     
  19 O19           -9.8747     5.8057    -0.3651 O.3     
  20 C20          -11.2776     5.7990    -0.0407 C.3     
  21 C21          -11.3615     6.0492     1.4475 C.ar    
  22 C22          -12.3916     6.4532     2.2668 C.ar    
  23 C23          -12.1708     6.6031     3.6378 C.ar    
  24 C24          -10.9053     6.3418     4.1676 C.ar    
  25 C25           -9.8817     5.9371     3.3356 C.ar    
  26 C26          -10.1060     5.7899     1.9804 C.ar    
  27 N27           -6.9378     4.1940    -0.3415 N.am    
  28 C28           -8.2013     3.4453    -0.3840 C.3     
  29 C29           -9.0562     3.8534     0.8205 C.3     
  30 C30           -7.8521     6.0492     0.9539 C.3     
  31 C31           -6.9860     5.6595    -0.2488 C.3     
  32 C32          -13.2371     7.0234     4.4963 C.1     
  33 N33          -14.0829     7.3568     5.1774 N.1     
  34 H34           -1.3774     2.7684     5.4583 H       
  35 H35           -1.4508     1.2448     4.5298 H       
  36 H36            0.5648     1.8426     6.3525 H       
  37 H37            0.7878     0.7333     4.9600 H       
  38 H38            1.4748     3.7208     5.1462 H       
  39 H39            2.4766     2.3838     4.4881 H       
  40 H40            1.0899     2.1521     2.5377 H       
  41 H41            1.0539     3.9254     2.7808 H       
  42 H42           -0.3706     4.2518     1.3702 H       
  43 H43           -2.9755     7.1070    -1.3788 H       
  44 H44           -5.0752     5.8511    -1.6192 H       
  45 H45           -3.6306     2.9204     1.1575 H       
  46 H46           -0.1256     6.1575    -0.5790 H       
  47 H47           -1.0419     7.5672     0.0054 H       
  48 H48           -0.4387     6.3561     1.1620 H       
  49 H49          -11.7925     6.5911    -0.5843 H       
  50 H50          -11.7146     4.8305    -0.2838 H       
  51 H51          -13.3677     6.6539     1.8504 H       
  52 H52          -10.7281     6.4567     5.2267 H       
  53 H53           -8.9028     5.7353     3.7447 H       
  54 H54           -8.7337     3.6789    -1.3060 H       
  55 H55           -7.9942     2.3761    -0.3398 H       
  56 H56           -8.5677     3.5299     1.7396 H       
  57 H57          -10.0376     3.3851     0.7454 H       
  58 H58           -7.9832     7.1312     0.9724 H       
  59 H59           -7.3642     5.7259     1.8734 H       
  60 H60           -5.9774     6.0506    -0.1148 H       
  61 H61           -7.4210     6.0692    -1.1604 H       
@<TRIPOS>BOND
   1    1    2 1
   2    1    5 1
   3    1    6 am
   4    2    3 1
   5    2   34 1
   6    2   35 1
   7    3    4 1
   8    3   36 1
   9    3   37 1
  10    4    5 1
  11    4   38 1
  12    4   39 1
  13    5   40 1
  14    5   41 1
  15    6    7 2
  16    6    8 am
  17    8    9 1
  18    8   42 1
  19    9   10 ar
  20    9   14 ar
  21   10   11 ar
  22   10   15 1
  23   11   12 ar
  24   11   43 1
  25   12   13 ar
  26   12   44 1
  27   13   14 ar
  28   13   16 1
  29   14   45 1
  30   15   46 1
  31   15   47 1
  32   15   48 1
  33   16   17 2
  34   16   27 am
  35   18   19 1
  36   18   26 1
  37   18   29 1
  38   18   30 1
  39   19   20 1
  40   20   21 1
  41   20   49 1
  42   20   50 1
  43   21   22 ar
  44   21   26 ar
  45   22   23 ar
  46   22   51 1
  47   23   24 ar
  48   23   32 1
  49   24   25 ar
  50   24   52 1
  51   25   26 ar
  52   25   53 1
  53   27   28 1
  54   27   31 1
  55   28   29 1
  56   28   54 1
  57   28   55 1
  58   29   56 1
  59   29   57 1
  60   30   31 1
  61   30   58 1
  62   30   59 1
  63   31   60 1
  64   31   61 1
  65   32   33 3

#	End of record

