#	Name: ASD00431004
#	Creating user name:	WinNT
#	Creation time:	15. 06. 2019 18:35

#	Modifying user name:	WinNT
#	Modification time:	15. 06. 2019 18:35

#	Program:	/corina/corina34_cracker 3.40 0067  02.08.2006

@<TRIPOS>MOLECULE
ASD00431004
  32   32    0    0    0
SMALL
NO_CHARGES


@<TRIPOS>ATOM
   1 C1            -0.0184     1.5069     0.0103 C.2     
   2 C2             0.0021    -0.0041     0.0020 C.3     
   3 C3             0.8911    -0.4897    -1.1137 C.2     
   4 O4             1.0144     2.1326     0.0038 O.2     
   5 O5             1.8556    -1.1731    -0.8638 O.2     
   6 C6            -1.3339     2.2170     0.0205 C.3     
   7 C7            -2.2504     1.4932     1.0191 C.3     
   8 C8            -1.8537     1.8778     2.4422 C.3     
   9 C9            -0.5331     1.1898     2.8361 C.3     
  10 C10           -0.5361    -0.2777     2.4228 C.3     
  11 C11            0.5400    -0.5025     1.3339 C.3     
  12 O12            0.6114    -0.1630    -2.3853 O.3     
  13 C13            1.0342    -0.1938    -4.7833 C.3     
  14 C14            1.5109    -0.6657    -3.4082 C.3     
  15 H15           -1.0095    -0.3813    -0.1477 H       
  16 H16           -1.1924     3.2518     0.3323 H       
  17 H17           -1.7768     2.1880    -0.9751 H       
  18 H18           -3.2854     1.7837     0.8391 H       
  19 H19           -2.1476     0.4156     0.8917 H       
  20 H20           -1.7288     2.9590     2.5019 H       
  21 H21           -2.6401     1.5700     3.1313 H       
  22 H22            0.2959     1.6985     2.3441 H       
  23 H23           -0.4028     1.2572     3.9162 H       
  24 H24           -0.3114    -0.9001     3.2890 H       
  25 H25           -1.5169    -0.5427     2.0281 H       
  26 H26            0.7677    -1.5659     1.2608 H       
  27 H27            1.4439     0.0473     1.5961 H       
  28 H28            0.0279    -0.5698    -4.9677 H       
  29 H29            1.0256     0.8959    -4.8106 H       
  30 H30            1.7095    -0.5712    -5.5512 H       
  31 H31            2.5173    -0.2897    -3.2238 H       
  32 H32            1.5195    -1.7553    -3.3809 H       
@<TRIPOS>BOND
   1    1    2 1
   2    1    4 2
   3    1    6 1
   4    2    3 1
   5    2   11 1
   6    2   15 1
   7    3    5 2
   8    3   12 1
   9    6    7 1
  10    6   16 1
  11    6   17 1
  12    7    8 1
  13    7   18 1
  14    7   19 1
  15    8    9 1
  16    8   20 1
  17    8   21 1
  18    9   10 1
  19    9   22 1
  20    9   23 1
  21   10   11 1
  22   10   24 1
  23   10   25 1
  24   11   26 1
  25   11   27 1
  26   12   14 1
  27   13   14 1
  28   13   28 1
  29   13   29 1
  30   13   30 1
  31   14   31 1
  32   14   32 1

#	End of record

