#	Name: ASD04882406
#	Creating user name:	WinNT
#	Creation time:	15. 06. 2019 20:54

#	Modifying user name:	WinNT
#	Modification time:	15. 06. 2019 20:54

#	Program:	/corina/corina34_cracker 3.40 0067  02.08.2006

@<TRIPOS>MOLECULE
ASD04882406
  80   85    0    0    0
SMALL
NO_CHARGES


@<TRIPOS>ATOM
   1 C1            -0.2233     1.4424     0.1081 C.ar    
   2 C2             0.0345     0.0706     0.0382 C.ar    
   3 C3            -1.0179    -0.8378     0.0473 C.ar    
   4 C4            -2.3178    -0.3896     0.1248 C.ar    
   5 C5            -2.5827     0.9810     0.1950 C.ar    
   6 C6            -1.5261     1.8961     0.1917 C.ar    
   7 N7             1.3473    -0.3870    -0.0412 N.3     
   8 C8             1.9679     0.0124    -1.3107 C.3     
   9 C9             1.4096    -1.8422     0.1456 C.3     
  10 C10            2.8724    -2.2890     0.1976 C.3     
  11 C11            3.5686    -1.8929    -1.1073 C.3     
  12 C12            3.4474    -0.3790    -1.3022 C.3     
  13 C13           -3.9752     1.4609     0.2781 C.2     
  14 O14           -4.2048     2.6534     0.3391 O.2     
  15 C15            5.0243    -2.2767    -1.0381 C.ar    
  16 C16            5.7067    -2.6107    -2.1929 C.ar    
  17 C17            5.6786    -2.2894     0.1796 C.ar    
  18 C18            7.0138    -2.6415     0.2431 C.ar    
  19 C19            7.6947    -2.9814    -0.9109 C.ar    
  20 C20            7.0420    -2.9628    -2.1294 C.ar    
  21 N21           -4.9931     0.5774     0.2863 N.am    
  22 C22           -6.3760     1.0540     0.3688 C.3     
  23 C23           -7.3291    -0.1428     0.3608 C.3     
  24 C24           -8.7733     0.3548     0.4469 C.3     
  25 N25            0.8384     2.3568     0.0993 N.am    
  26 C26            0.6881     3.5582    -0.4927 C.2     
  27 O27           -0.3305     3.8098    -1.1080 O.2     
  28 C28            1.7581     4.5672    -0.3944 C.2     
  29 C29            1.7451     5.8152    -0.9375 C.2     
  30 O30            2.9092     6.3974    -0.6083 O.3     
  31 C31            3.6219     5.5270     0.1208 C.2     
  32 N32            2.9422     4.4286     0.2613 N.2     
  33 C33            4.9925     5.7841     0.6921 C.3     
  34 N34           -9.6860    -0.7911     0.4393 N.am    
  35 C35          -10.1091    -1.4312     1.5430 C.2     
  36 C36          -10.2609    -1.3838    -0.7740 C.3     
  37 C37          -10.7753    -2.7769    -0.3483 C.3     
  38 C38          -11.0312    -2.5688     1.1635 C.3     
  39 O39           -9.7964    -1.1395     2.6780 O.2     
  40 C40            6.1192     6.1052    -0.2920 C.3     
  41 C41            5.5419     7.2089     0.5965 C.3     
  42 N42            2.9301    -2.5856    -2.2344 N.3     
  43 H43           -0.8156    -1.8973    -0.0068 H       
  44 H44           -3.1332    -1.0977     0.1310 H       
  45 H45           -1.7278     2.9557     0.2458 H       
  46 H46            1.4638    -0.4910    -2.1357 H       
  47 H47            1.8785     1.0916    -1.4350 H       
  48 H48            0.9146    -2.1100     1.0791 H       
  49 H49            0.9081    -2.3369    -0.6862 H       
  50 H50            3.3710    -1.8052     1.0375 H       
  51 H51            2.9182    -3.3711     0.3206 H       
  52 H52            3.9040    -0.0964    -2.2507 H       
  53 H53            3.9550     0.1348    -0.4859 H       
  54 H54            5.1966    -2.5968    -3.1447 H       
  55 H55            5.1466    -2.0239     1.0812 H       
  56 H56            7.5252    -2.6508     1.1943 H       
  57 H57            8.7380    -3.2561    -0.8614 H       
  58 H58            7.5739    -3.2283    -3.0310 H       
  59 H59           -4.8100    -0.3739     0.2376 H       
  60 H60           -6.5109     1.6198     1.2906 H       
  61 H61           -6.5908     1.6953    -0.4860 H       
  62 H62           -7.1942    -0.7086    -0.5610 H       
  63 H63           -7.1142    -0.7842     1.2156 H       
  64 H64           -8.9083     0.9207     1.3688 H       
  65 H65           -8.9882     0.9962    -0.4078 H       
  66 H66            1.6815     2.1251     0.5192 H       
  67 H67            0.9499     6.2535    -1.5222 H       
  68 H68            5.2487     5.2040     1.5786 H       
  69 H69          -11.0862    -0.7720    -1.1381 H       
  70 H70           -9.4959    -1.4834    -1.5441 H       
  71 H71          -11.7002    -3.0267    -0.8682 H       
  72 H72          -10.0164    -3.5410    -0.5164 H       
  73 H73          -10.7755    -3.4696     1.7213 H       
  74 H74          -12.0707    -2.2920     1.3399 H       
  75 H75            7.1167     5.7367    -0.0527 H       
  76 H76            5.8691     6.1305    -1.3526 H       
  77 H77            4.9119     7.9603     0.1205 H       
  78 H78            6.1595     7.5664     1.4204 H       
  79 H79            3.3725    -2.3401    -3.1073 H       
  80 H80            2.9357    -3.5849    -2.0946 H       
@<TRIPOS>BOND
   1    1    2 ar
   2    1   25 1
   3    1    6 ar
   4    2    3 ar
   5    2    7 1
   6    3    4 ar
   7    3   43 1
   8    4    5 ar
   9    4   44 1
  10    5    6 ar
  11    5   13 1
  12    6   45 1
  13    7    8 1
  14    7    9 1
  15    8   12 1
  16    8   46 1
  17    8   47 1
  18    9   10 1
  19    9   48 1
  20    9   49 1
  21   10   11 1
  22   10   50 1
  23   10   51 1
  24   11   12 1
  25   11   15 1
  26   11   42 1
  27   12   52 1
  28   12   53 1
  29   13   14 2
  30   13   21 am
  31   15   16 ar
  32   15   17 ar
  33   16   20 ar
  34   16   54 1
  35   17   18 ar
  36   17   55 1
  37   18   19 ar
  38   18   56 1
  39   19   20 ar
  40   19   57 1
  41   20   58 1
  42   21   22 1
  43   21   59 1
  44   22   23 1
  45   22   60 1
  46   22   61 1
  47   23   24 1
  48   23   62 1
  49   23   63 1
  50   24   34 1
  51   24   64 1
  52   24   65 1
  53   25   26 am
  54   25   66 1
  55   26   27 2
  56   26   28 1
  57   28   29 2
  58   28   32 1
  59   29   30 1
  60   29   67 1
  61   30   31 1
  62   31   32 2
  63   31   33 1
  64   33   40 1
  65   33   41 1
  66   33   68 1
  67   34   35 am
  68   34   36 1
  69   35   39 2
  70   35   38 1
  71   36   37 1
  72   36   69 1
  73   36   70 1
  74   37   38 1
  75   37   71 1
  76   37   72 1
  77   38   73 1
  78   38   74 1
  79   40   41 1
  80   40   75 1
  81   40   76 1
  82   41   77 1
  83   41   78 1
  84   42   79 1
  85   42   80 1

#	End of record

