#	Name: ASD01001214
#	Creating user name:	WinNT
#	Creation time:	15. 06. 2019 18:55

#	Modifying user name:	WinNT
#	Modification time:	15. 06. 2019 18:55

#	Program:	/corina/corina34_cracker 3.40 0067  02.08.2006

@<TRIPOS>MOLECULE
ASD01001214
  61   64    0    0    0
SMALL
NO_CHARGES


@<TRIPOS>ATOM
   1 C1            -0.0187     1.5272     0.0104 C.3     
   2 C2             1.4084     2.0618    -0.0003 C.3     
   3 C3             0.0021    -0.0041     0.0020 C.3     
   4 C4             2.1305     1.7029     1.2996 C.3     
   5 C5             2.2029     1.4764    -1.1671 C.3     
   6 C6             0.7960    -0.4762    -1.2204 C.3     
   7 N7             3.3929     2.4443     1.3518 N.3     
   8 C8             1.2710     2.0834     2.4776 C.ar    
   9 C9             3.6552     1.8669    -1.0109 C.ar    
  10 C10            0.8513    -2.0052    -1.2355 C.3     
  11 C11            4.1646     2.3100     0.1958 C.ar    
  12 C12            4.4801     1.7696    -2.1199 C.ar    
  13 C13            5.5186     2.6486     0.2820 C.ar    
  14 C14            6.3361     2.5472    -0.8249 C.ar    
  15 C15            5.8170     2.1080    -2.0302 C.ar    
  16 H16            3.2325     3.4165     1.5687 H       
  17 O17            2.1210     0.0488    -1.1457 O.3     
  18 Cl18           6.8420     1.9831    -3.4257 Cl      
  19 C19            0.5251     1.1190     3.1291 C.ar    
  20 C20           -0.2633     1.4680     4.2096 C.ar    
  21 C21           -0.3055     2.7813     4.6388 C.ar    
  22 C22            0.4411     3.7456     3.9878 C.ar    
  23 C23            1.2329     3.3958     2.9101 C.ar    
  24 N24            1.6107    -2.4548    -2.4048 N.am    
  25 S25            2.1520    -4.0175    -2.4898 S.o2    
  26 C26            0.6399    -5.0168    -2.5656 C.3     
  27 C27            1.0115    -6.4987    -2.6478 C.3     
  28 O28            2.8528    -4.0791    -3.7244 O.2     
  29 N29           -0.2130    -7.3079    -2.7092 N.3     
  30 F30            6.0296     3.0780     1.4566 F       
  31 O31            2.8241    -4.2232    -1.2548 O.2     
  32 C32           -0.9449    -7.0613    -3.9588 C.3     
  33 C33            0.0913    -8.7362    -2.5504 C.3     
  34 H34           -0.5304     1.8778     0.9067 H       
  35 H35           -0.5474     1.8874    -0.8721 H       
  36 H36            1.3845     3.1460    -0.1096 H       
  37 H37            0.4797    -0.3684     0.9115 H       
  38 H38           -1.0181    -0.3834    -0.0556 H       
  39 H39            2.3336     0.6322     1.3219 H       
  40 H40            1.8160     1.8669    -2.1083 H       
  41 H41            0.3118    -0.1198    -2.1296 H       
  42 H42            1.3386    -2.3601    -0.3274 H       
  43 H43           -0.1616    -2.4049    -1.2844 H       
  44 H44            4.0757     1.4266    -3.0607 H       
  45 H45            7.3809     2.8103    -0.7506 H       
  46 H46            0.5581     0.0929     2.7938 H       
  47 H47           -0.8465     0.7146     4.7182 H       
  48 H48           -0.9220     3.0541     5.4826 H       
  49 H49            0.4079     4.7717     4.3230 H       
  50 H50            1.8161     4.1491     2.4014 H       
  51 H51            1.7965    -1.8371    -3.1293 H       
  52 H52            0.0429    -4.8410    -1.6707 H       
  53 H53            0.0635    -4.7373    -3.4475 H       
  54 H54            1.6084    -6.6745    -3.5427 H       
  55 H55            1.5878    -6.7782    -1.7658 H       
  56 H56           -0.3120    -7.3201    -4.8076 H       
  57 H57           -1.8469    -7.6729    -3.9783 H       
  58 H58           -1.2188    -6.0079    -4.0176 H       
  59 H59            0.5708    -8.9005    -1.5854 H       
  60 H60           -0.8327    -9.3123    -2.5998 H       
  61 H61            0.7618    -9.0557    -3.3483 H       
@<TRIPOS>BOND
   1    1    3 1
   2    1    2 1
   3    1   34 1
   4    1   35 1
   5    2    4 1
   6    2    5 1
   7    2   36 1
   8    3    6 1
   9    3   37 1
  10    3   38 1
  11    4    7 1
  12    4    8 1
  13    4   39 1
  14    5    9 1
  15    5   17 1
  16    5   40 1
  17    6   10 1
  18    6   17 1
  19    6   41 1
  20    7   11 1
  21    7   16 1
  22    8   19 ar
  23    8   23 ar
  24    9   11 ar
  25    9   12 ar
  26   10   24 1
  27   10   42 1
  28   10   43 1
  29   11   13 ar
  30   12   15 ar
  31   12   44 1
  32   13   14 ar
  33   13   30 1
  34   14   15 ar
  35   14   45 1
  36   15   18 1
  37   19   20 ar
  38   19   46 1
  39   20   21 ar
  40   20   47 1
  41   21   22 ar
  42   21   48 1
  43   22   23 ar
  44   22   49 1
  45   23   50 1
  46   24   25 am
  47   24   51 1
  48   25   26 1
  49   25   28 2
  50   25   31 2
  51   26   27 1
  52   26   52 1
  53   26   53 1
  54   27   29 1
  55   27   54 1
  56   27   55 1
  57   29   32 1
  58   29   33 1
  59   32   56 1
  60   32   57 1
  61   32   58 1
  62   33   59 1
  63   33   60 1
  64   33   61 1

#	End of record

