#	Name: ASD03230005
#	Creating user name:	WinNT
#	Creation time:	15. 06. 2019 20:34

#	Modifying user name:	WinNT
#	Modification time:	15. 06. 2019 20:34

#	Program:	/corina/corina34_cracker 3.40 0067  02.08.2006

@<TRIPOS>MOLECULE
ASD03230005
  57   58    0    0    0
SMALL
NO_CHARGES


@<TRIPOS>ATOM
   1 C1            -0.3837     0.8353    -0.2778 C.ar    
   2 C2            -0.5167    -0.5532    -0.2747 C.ar    
   3 C3            -1.7735    -1.1345    -0.1686 C.ar    
   4 C4            -2.8959    -0.3431    -0.0655 C.ar    
   5 C5            -2.7711     1.0517    -0.0675 C.ar    
   6 C6            -1.5027     1.6368    -0.1692 C.ar    
   7 C7            -3.9658     1.8981     0.0423 C.2     
   8 C8            -5.1918     1.3297     0.1457 C.2     
   9 C9            -6.3377     2.1415     0.2509 C.2     
  10 C10           -7.7009     1.5095     0.3659 C.3     
  11 O11           -6.2273     3.3511     0.2491 O.2     
  12 C12           -8.7483     2.5886     0.4642 C.2     
  13 C13          -10.1081     2.2415     0.5807 C.2     
  14 O14           -8.4195     3.7577     0.4431 O.2     
  15 C15          -11.0500     3.2119     0.6692 C.2     
  16 C16          -12.4678     2.8500     0.7906 C.ar    
  17 C17          -13.4429     3.8512     0.8822 C.ar    
  18 C18          -12.8497     1.5028     0.8095 C.ar    
  19 C19          -14.1803     1.1664     0.9236 C.ar    
  20 C20          -15.1459     2.1599     1.0196 C.ar    
  21 C21          -14.7745     3.5042     0.9963 C.ar    
  22 O22          -15.7235     4.4733     1.0910 O.3     
  23 C23          -15.2720     5.8287     1.0604 C.3     
  24 O24          -16.4567     1.8216     1.1310 O.3     
  25 O25          -16.7005     2.2367    -1.0262 O.2     
  26 C26          -17.1892     1.8419     0.0059 C.2     
  27 C27          -18.6209     1.3722     0.0303 C.3     
  28 O28            0.8490     1.3998    -0.3823 O.3     
  29 C29            0.9112     2.8274    -0.3790 C.3     
  30 O30            0.5864    -1.3392    -0.3760 O.3     
  31 O31            0.8677    -1.1501     1.8081 O.2     
  32 C32            1.2843    -1.5584     0.7500 C.2     
  33 C33            2.5872    -2.3137     0.6939 C.3     
  34 H34           -1.8710    -2.2101    -0.1674 H       
  35 H35           -3.8720    -0.7981     0.0164 H       
  36 H36           -1.4009     2.7120    -0.1711 H       
  37 H37           -3.8677     2.9736     0.0406 H       
  38 H38           -5.2899     0.2542     0.1473 H       
  39 H39           -7.8926     0.8963    -0.5147 H       
  40 H40           -7.7378     0.8849     1.2585 H       
  41 H41          -10.4004     1.2019     0.5996 H       
  42 H42          -10.7577     4.2514     0.6504 H       
  43 H43          -13.1541     4.8917     0.8640 H       
  44 H44          -12.1011     0.7280     0.7343 H       
  45 H45          -14.4736     0.1271     0.9380 H       
  46 H46          -16.1277     6.4987     1.1442 H       
  47 H47          -14.5907     6.0036     1.8931 H       
  48 H48          -14.7532     6.0178     0.1206 H       
  49 H49          -18.8824     1.0562     1.0402 H       
  50 H50          -19.2761     2.1876    -0.2763 H       
  51 H51          -18.7399     0.5332    -0.6552 H       
  52 H52            0.3380     3.2180    -1.2198 H       
  53 H53            0.4932     3.2071     0.5533 H       
  54 H54            1.9498     3.1460    -0.4680 H       
  55 H55            3.4072    -1.6125     0.5389 H       
  56 H56            2.7382    -2.8477     1.6321 H       
  57 H57            2.5585    -3.0271    -0.1297 H       
@<TRIPOS>BOND
   1    1    2 ar
   2    1   28 1
   3    1    6 ar
   4    2    3 ar
   5    2   30 1
   6    3    4 ar
   7    3   34 1
   8    4    5 ar
   9    4   35 1
  10    5    6 ar
  11    5    7 1
  12    6   36 1
  13    7    8 2
  14    7   37 1
  15    8    9 1
  16    8   38 1
  17    9   10 1
  18    9   11 2
  19   10   12 1
  20   10   39 1
  21   10   40 1
  22   12   13 1
  23   12   14 2
  24   13   15 2
  25   13   41 1
  26   15   16 1
  27   15   42 1
  28   16   17 ar
  29   16   18 ar
  30   17   21 ar
  31   17   43 1
  32   18   19 ar
  33   18   44 1
  34   19   20 ar
  35   19   45 1
  36   20   21 ar
  37   20   24 1
  38   21   22 1
  39   22   23 1
  40   23   46 1
  41   23   47 1
  42   23   48 1
  43   24   26 1
  44   25   26 2
  45   26   27 1
  46   27   49 1
  47   27   50 1
  48   27   51 1
  49   28   29 1
  50   29   52 1
  51   29   53 1
  52   29   54 1
  53   30   32 1
  54   31   32 2
  55   32   33 1
  56   33   55 1
  57   33   56 1
  58   33   57 1

#	End of record

