#	Name: ASD08170128
#	Creating user name:	WinNT
#	Creation time:	15. 06. 2019 21:17

#	Modifying user name:	WinNT
#	Modification time:	15. 06. 2019 21:17

#	Program:	/corina/corina34_cracker 3.40 0067  02.08.2006

@<TRIPOS>MOLECULE
ASD08170128
  60   63    0    0    0
SMALL
NO_CHARGES


@<TRIPOS>ATOM
   1 C1            -0.0184     1.5028     0.0103 C.3     
   2 C2             1.3963     3.5622     0.0079 C.3     
   3 C3             2.8317     4.0918    -0.0030 C.3     
   4 C4             2.8112     5.5986     0.0053 C.2     
   5 C5             0.0021    -0.0041     0.0020 C.2     
   6 S6             2.7835     6.6466    -1.4134 S.3     
   7 C7             2.7740     8.0128    -0.3799 C.2     
   8 N8             2.7912     7.6028     0.8524 N.2     
   9 N9             2.8052     6.3568     1.0554 N.2     
  10 S10            0.0026    -1.0367    -1.4281 S.3     
  11 N11            0.0281    -0.7735     1.0436 N.2     
  12 N12            0.0423    -2.0172     0.8270 N.2     
  13 C13            0.0316    -2.4140    -0.4097 C.2     
  14 N14            0.0439    -3.7376    -0.8365 N.am    
  15 C15            0.0694    -4.7369     0.0675 C.2     
  16 O16            0.0817    -4.4819     1.2531 O.2     
  17 N17            2.7522     9.3409    -0.7921 N.am    
  18 C18            2.7468    10.3305     0.1228 C.2     
  19 C19            2.7231    11.7696    -0.3239 C.3     
  20 O20            2.7611    10.0628     1.3057 O.2     
  21 C21            0.0826    -6.1711    -0.3950 C.3     
  22 C22            1.4250    12.0536    -1.0347 C.ar    
  23 C23            1.3644    -6.4476    -1.1377 C.ar    
  24 C24            1.3587    11.9690    -2.4128 C.ar    
  25 C25            2.5034    -6.8061    -0.4411 C.ar    
  26 O26           -0.0080    -7.0377     0.7377 O.3     
  27 O27            2.8390    12.6240     0.8157 O.3     
  28 C28            0.1680    12.2296    -3.0649 C.ar    
  29 C29           -0.9566    12.5743    -2.3387 C.ar    
  30 C30           -0.8906    12.6580    -0.9604 C.ar    
  31 C31            0.2990    12.3932    -0.3081 C.ar    
  32 C32            1.3998    -6.3483    -2.5160 C.ar    
  33 C33            2.5756    -6.6019    -3.1973 C.ar    
  34 C34            3.7161    -6.9544    -2.5002 C.ar    
  35 C35            3.6791    -7.0597    -1.1223 C.ar    
  36 C36            1.4170     2.0324    -0.0006 C.3     
  37 H37           -0.5455     1.8639    -0.8728 H       
  38 H38           -0.5286     1.8543     0.9071 H       
  39 H39            0.8861     3.9137     0.9047 H       
  40 H40            0.8691     3.9233    -0.8752 H       
  41 H41            3.3588     3.7307     0.8801 H       
  42 H42            3.3418     3.7402    -0.8998 H       
  43 H43            0.0340    -3.9415    -1.7848 H       
  44 H44            2.7408     9.5550    -1.7382 H       
  45 H45            3.5564    11.9533    -1.0020 H       
  46 H46           -0.7657    -6.3475    -1.0562 H       
  47 H47            2.2373    11.6997    -2.9802 H       
  48 H48            2.4747    -6.8876     0.6355 H       
  49 H49            0.7161    -6.9352     1.3703 H       
  50 H50            2.1292    12.5145     1.4632 H       
  51 H51            0.1164    12.1642    -4.1416 H       
  52 H52           -1.8868    12.7786    -2.8481 H       
  53 H53           -1.7692    12.9276    -0.3931 H       
  54 H54            0.3506    12.4585     0.7687 H       
  55 H55            0.5088    -6.0730    -3.0606 H       
  56 H56            2.6031    -6.5250    -4.2742 H       
  57 H57            4.6346    -7.1528    -3.0325 H       
  58 H58            4.5702    -7.3351    -0.5777 H       
  59 H59            1.9442     1.6713     0.8825 H       
  60 H60            1.9272     1.6808    -0.8974 H       
@<TRIPOS>BOND
   1    1    5 1
   2    1   36 1
   3    1   37 1
   4    1   38 1
   5    2    3 1
   6    2   36 1
   7    2   39 1
   8    2   40 1
   9    3    4 1
  10    3   41 1
  11    3   42 1
  12    4    6 1
  13    4    9 2
  14    5   10 1
  15    5   11 2
  16    6    7 1
  17    7    8 2
  18    7   17 1
  19    8    9 1
  20   10   13 1
  21   11   12 1
  22   12   13 2
  23   13   14 1
  24   14   15 am
  25   14   43 1
  26   15   16 2
  27   15   21 1
  28   17   18 am
  29   17   44 1
  30   18   19 1
  31   18   20 2
  32   19   22 1
  33   19   27 1
  34   19   45 1
  35   21   23 1
  36   21   26 1
  37   21   46 1
  38   22   24 ar
  39   22   31 ar
  40   23   32 ar
  41   23   25 ar
  42   24   28 ar
  43   24   47 1
  44   25   35 ar
  45   25   48 1
  46   26   49 1
  47   27   50 1
  48   28   29 ar
  49   28   51 1
  50   29   30 ar
  51   29   52 1
  52   30   31 ar
  53   30   53 1
  54   31   54 1
  55   32   33 ar
  56   32   55 1
  57   33   34 ar
  58   33   56 1
  59   34   35 ar
  60   34   57 1
  61   35   58 1
  62   36   59 1
  63   36   60 1

#	End of record

