#	Name: ASD06020035
#	Creating user name:	WinNT
#	Creation time:	15. 06. 2019 21:04

#	Modifying user name:	WinNT
#	Modification time:	15. 06. 2019 21:04

#	Program:	/corina/corina34_cracker 3.40 0067  02.08.2006

@<TRIPOS>MOLECULE
ASD06020035
  40   43    0    0    0
SMALL
NO_CHARGES


@<TRIPOS>ATOM
   1 C1             0.0070    -0.0032     0.0570 C.1     
   2 C2            -0.0132     1.4286     0.0547 C.ar    
   3 C3             1.1868     2.1441     0.0334 C.ar    
   4 C4             1.1678     3.5218     0.0316 C.ar    
   5 C5            -0.0522     4.2037     0.0508 C.ar    
   6 C6            -1.2526     3.4878     0.0716 C.ar    
   7 C7            -1.2330     2.1101     0.0680 C.ar    
   8 N8             0.0230    -1.1391     0.0588 N.1     
   9 C9            -0.8915     9.4870     0.0596 C.ar    
  10 C10           -0.5508     8.1300     0.0554 C.ar    
  11 C11            0.7984     7.7571     0.0341 C.ar    
  12 C12            1.7563     8.8031     0.0177 C.ar    
  13 C13            1.3373    10.0959     0.0232 C.ar    
  14 N14            0.0519    10.4123     0.0435 N.ar    
  15 S15           -1.5295     6.6672     0.0720 S.3     
  16 C16           -0.0730     5.6812     0.0494 C.2     
  17 N17            0.9772     6.4360     0.0321 N.2     
  18 N18           -2.2313     9.8644     0.0749 N.pl3   
  19 C19           -1.9574    13.3980     0.5038 C.ar    
  20 N20           -1.6361    12.1248     0.3935 N.ar    
  21 C21           -2.5732    11.2035     0.1910 C.ar    
  22 C22           -3.9071    11.6059     0.0965 C.ar    
  23 C23           -4.1962    12.9508     0.2183 C.ar    
  24 N24           -3.2064    13.8094     0.4193 N.ar    
  25 C25           -5.6196    13.4364     0.1233 C.3     
  26 C26           -5.9666    14.2464     1.3741 C.3     
  27 Cl27          -2.7680     4.3343     0.0959 Cl      
  28 Cl28           2.6588     4.4105     0.0063 Cl      
  29 H29            2.1294     1.6171     0.0186 H       
  30 H30           -2.1604     1.5568     0.0800 H       
  31 H31            2.8116     8.5737     0.0014 H       
  32 H32            2.0728    10.8866     0.0110 H       
  33 H33           -2.9257     9.1909     0.0045 H       
  34 H34           -1.1758    14.1240     0.6726 H       
  35 H35           -4.6928    10.8834    -0.0680 H       
  36 H36           -5.7306    14.0660    -0.7596 H       
  37 H37           -6.2910    12.5812     0.0464 H       
  38 H38           -5.8557    13.6169     2.2570 H       
  39 H39           -5.2953    15.1016     1.4510 H       
  40 H40           -6.9962    14.5977     1.3054 H       
@<TRIPOS>BOND
   1    1    2 1
   2    1    8 3
   3    2    3 ar
   4    2    7 ar
   5    3    4 ar
   6    3   29 1
   7    4    5 ar
   8    4   28 1
   9    5    6 ar
  10    5   16 1
  11    6    7 ar
  12    6   27 1
  13    7   30 1
  14    9   10 ar
  15    9   14 ar
  16    9   18 1
  17   10   11 ar
  18   10   15 1
  19   11   12 ar
  20   11   17 1
  21   12   13 ar
  22   12   31 1
  23   13   14 ar
  24   13   32 1
  25   15   16 1
  26   16   17 2
  27   18   21 1
  28   18   33 1
  29   19   20 ar
  30   19   24 ar
  31   19   34 1
  32   20   21 ar
  33   21   22 ar
  34   22   23 ar
  35   22   35 1
  36   23   24 ar
  37   23   25 1
  38   25   26 1
  39   25   36 1
  40   25   37 1
  41   26   38 1
  42   26   39 1
  43   26   40 1

#	End of record

