#	Name: ASD00840594
#	Creating user name:	WinNT
#	Creation time:	15. 06. 2019 18:39

#	Modifying user name:	WinNT
#	Modification time:	15. 06. 2019 18:39

#	Program:	/corina/corina34_cracker 3.40 0067  02.08.2006

@<TRIPOS>MOLECULE
ASD00840594
  84   89    0    0    0
SMALL
NO_CHARGES


@<TRIPOS>ATOM
   1 N1             1.0653     1.4638    -0.7389 N.ar    
   2 C2             1.3282     0.1727    -0.8522 C.ar    
   3 C3             1.2501    -0.6652     0.2532 C.ar    
   4 C4             0.8925    -0.1313     1.4787 C.ar    
   5 C5             0.6245     1.2287     1.5557 C.ar    
   6 C6             0.7218     2.0017     0.4161 C.ar    
   7 C7             1.5501    -2.1359     0.1192 C.3     
   8 C8             1.2697    -2.8552     1.4214 C.2     
   9 C9             0.7299    -2.7475    -1.0184 C.3     
  10 C10           -0.7324    -2.4609    -0.7937 C.2     
  11 N11           -1.6566    -2.9804    -1.6259 N.am    
  12 O12           -1.0776    -1.7626     0.1359 O.2     
  13 C13           -3.0745    -2.6209    -1.4881 C.3     
  14 C14           -3.9003    -3.9063    -1.3752 C.3     
  15 C15           -3.5946    -4.8109    -2.5712 C.3     
  16 C16           -2.1113    -5.1875    -2.5621 C.3     
  17 C17           -1.2644    -3.9123    -2.6920 C.3     
  18 C18           -4.4434    -6.0806    -2.4800 C.3     
  19 C19           -5.9279    -5.7056    -2.4906 C.3     
  20 C20           -6.7717    -6.9820    -2.4607 C.3     
  21 N21           -6.4494    -7.8109    -3.6292 N.3     
  22 C22           -5.0399    -8.2226    -3.6157 C.3     
  23 C23           -4.1444    -6.9833    -3.6801 C.3     
  24 C24           -7.3381    -8.9779    -3.7080 C.3     
  25 O25            0.1983    -2.9344     1.9844 O.2     
  26 N26            2.4308    -3.3890     1.8367 N.am    
  27 C27            3.0276    -2.3561    -0.1117 C.ar    
  28 C28            3.4818    -3.1148     0.9600 C.ar    
  29 C29            3.8872    -1.9610    -1.1118 C.ar    
  30 C30            5.2235    -2.3204    -1.0564 C.ar    
  31 C31            5.6892    -3.0770     0.0072 C.ar    
  32 C32            4.8267    -3.4737     1.0112 C.ar    
  33 Cl33           6.3114    -1.8252    -2.3153 Cl      
  34 F34            6.9925    -3.4283     0.0626 F       
  35 C35            2.3052    -5.9587     2.8141 C.ar    
  36 C36            3.3572    -6.7651     2.4219 C.ar    
  37 C37            1.0261    -6.4779     2.8867 C.ar    
  38 C38            0.7990    -7.8034     2.5671 C.ar    
  39 C39            1.8509    -8.6097     2.1744 C.ar    
  40 C40            3.1300    -8.0906     2.1018 C.ar    
  41 H41            1.6735    -9.6454     1.9247 H       
  42 H42            4.3565    -6.3595     2.3651 H       
  43 O43            1.6773    -0.3386    -2.0595 O.3     
  44 C44            2.1665    -0.1661    -4.4199 C.3     
  45 C45            1.6323     0.5500    -3.1778 C.3     
  46 S46            2.5958    -4.2710     3.2285 S.o2    
  47 O47            3.9638    -4.1793     3.6018 O.2     
  48 O48            1.5294    -3.8779     4.0815 O.2     
  49 H49            0.8232    -0.7584     2.3553 H       
  50 H50            0.3424     1.6769     2.4969 H       
  51 H51            0.5147     3.0603     0.4707 H       
  52 H52            1.0439    -2.3126    -1.9672 H       
  53 H53            0.8893    -3.8256    -1.0424 H       
  54 H54           -3.2130    -2.0177    -0.5908 H       
  55 H55           -3.3951    -2.0563    -2.3636 H       
  56 H56           -3.6423    -4.4245    -0.4517 H       
  57 H57           -4.9615    -3.6575    -1.3691 H       
  58 H58           -3.8296    -4.2829    -3.4953 H       
  59 H59           -1.8701    -5.6937    -1.6274 H       
  60 H60           -1.8992    -5.8506    -3.4008 H       
  61 H61           -1.4386    -3.4556    -3.6662 H       
  62 H62           -0.2087    -4.1625    -2.5869 H       
  63 H63           -4.2081    -6.6105    -1.5569 H       
  64 H64           -6.1560    -5.0979    -1.6150 H       
  65 H65           -6.1541    -5.1409    -3.3951 H       
  66 H66           -6.5551    -7.5392    -1.5493 H       
  67 H67           -7.8292    -6.7188    -2.4826 H       
  68 H68           -4.8314    -8.7740    -2.6989 H       
  69 H69           -4.8397    -8.8605    -4.4765 H       
  70 H70           -4.3426    -6.4387    -4.6033 H       
  71 H71           -3.0983    -7.2884    -3.6543 H       
  72 H72           -8.3718    -8.6425    -3.7918 H       
  73 H73           -7.0777    -9.5745    -4.5823 H       
  74 H74           -7.2242    -9.5827    -2.8084 H       
  75 H75            3.5198    -1.3718    -1.9389 H       
  76 H76            5.1962    -4.0630     1.8375 H       
  77 H77            0.2042    -5.8479     3.1935 H       
  78 H78           -0.2002    -8.2092     2.6245 H       
  79 H79            3.9519    -8.7206     1.7953 H       
  80 H80            3.1641    -0.5543    -4.2146 H       
  81 H81            1.5018    -0.9905    -4.6780 H       
  82 H82            2.2142     0.5364    -5.2519 H       
  83 H83            0.6027     0.8619    -3.3529 H       
  84 H84            2.2471     1.4259    -2.9708 H       
@<TRIPOS>BOND
   1    1    2 ar
   2    1    6 ar
   3    2    3 ar
   4    2   43 1
   5    3    4 ar
   6    3    7 1
   7    4    5 ar
   8    4   49 1
   9    5    6 ar
  10    5   50 1
  11    6   51 1
  12    7    8 1
  13    7    9 1
  14    7   27 1
  15    8   25 2
  16    8   26 am
  17    9   10 1
  18    9   52 1
  19    9   53 1
  20   10   11 am
  21   10   12 2
  22   11   13 1
  23   11   17 1
  24   13   14 1
  25   13   54 1
  26   13   55 1
  27   14   15 1
  28   14   56 1
  29   14   57 1
  30   15   16 1
  31   15   18 1
  32   15   58 1
  33   16   17 1
  34   16   59 1
  35   16   60 1
  36   17   61 1
  37   17   62 1
  38   18   19 1
  39   18   23 1
  40   18   63 1
  41   19   20 1
  42   19   64 1
  43   19   65 1
  44   20   21 1
  45   20   66 1
  46   20   67 1
  47   21   22 1
  48   21   24 1
  49   22   23 1
  50   22   68 1
  51   22   69 1
  52   23   70 1
  53   23   71 1
  54   24   72 1
  55   24   73 1
  56   24   74 1
  57   26   46 am
  58   26   28 1
  59   27   28 ar
  60   27   29 ar
  61   28   32 ar
  62   29   30 ar
  63   29   75 1
  64   30   31 ar
  65   30   33 1
  66   31   32 ar
  67   31   34 1
  68   32   76 1
  69   35   36 ar
  70   35   37 ar
  71   35   46 1
  72   36   42 1
  73   36   40 ar
  74   37   38 ar
  75   37   77 1
  76   38   39 ar
  77   38   78 1
  78   39   40 ar
  79   39   41 1
  80   40   79 1
  81   43   45 1
  82   44   45 1
  83   44   80 1
  84   44   81 1
  85   44   82 1
  86   45   83 1
  87   45   84 1
  88   46   47 2
  89   46   48 2

#	End of record

