#	Name: ASD01140557
#	Creating user name:	WinNT
#	Creation time:	15. 06. 2019 19:01

#	Modifying user name:	WinNT
#	Modification time:	15. 06. 2019 19:01

#	Program:	/corina/corina34_cracker 3.40 0067  02.08.2006

@<TRIPOS>MOLECULE
ASD01140557
  63   67    0    0    0
SMALL
NO_CHARGES


@<TRIPOS>ATOM
   1 C1            -0.3164     1.6682     0.0918 C.3     
   2 C2            -0.3869     0.1405     0.1299 C.3     
   3 C3             0.3321    -0.4338    -1.0925 C.3     
   4 C4             1.7965     0.0092    -1.0766 C.3     
   5 C5             1.8674     1.5368    -1.1151 C.3     
   6 C6             1.1476     2.1130     0.1062 C.3     
   7 C7             1.2162     3.6399     0.0613 C.3     
   8 C8             3.3312     1.9809    -1.1027 C.3     
   9 C9             3.4029     3.5090    -1.1393 C.3     
  10 C10            2.6880     4.0815     0.0854 C.3     
  11 C11            0.5590     5.7661     1.2641 C.3     
  12 C12            0.4352     4.2337     1.2284 C.3     
  13 C13            2.0371     6.0976     1.3588 C.3     
  14 C14            2.3886     7.5893     1.3328 C.3     
  15 C15            2.7028     5.5962     0.0486 C.3     
  16 C16            4.0713     6.2684     0.0707 C.3     
  17 C17            3.8653     7.5904     0.8515 C.3     
  18 C18            0.2609    -1.9617    -1.0551 C.3     
  19 H19            1.3858     1.8997    -2.0232 H       
  20 H20            3.1667     3.7172     0.9943 H       
  21 C21            2.6604     5.4077     2.5739 C.3     
  22 C22            2.2767     8.1875     2.7114 C.2     
  23 O23            3.2480     8.2415     3.4269 O.2     
  24 C24            0.9526     8.7185     3.1971 C.3     
  25 O25           -0.2972     0.0436    -2.2833 O.3     
  26 H26            0.7598     3.9857    -0.8661 H       
  27 H27            2.1342     5.9492    -0.8117 H       
  28 N28            1.1057     9.2427     4.5565 N.pl3   
  29 N29            1.5776     8.5971     5.5651 N.2     
  30 C30            0.7808    10.4907     4.9662 C.2     
  31 C31            1.0841    10.5458     6.2842 C.2     
  32 N32            1.5764     9.3457     6.6111 N.2     
  33 H33           -0.7974     2.0314    -0.8164 H       
  34 H34           -0.8289     2.0773     0.9625 H       
  35 H35            0.0939    -0.2229     1.0382 H       
  36 H36           -1.4300    -0.1755     0.1196 H       
  37 H37            2.2762    -0.3540    -0.1677 H       
  38 H38            2.3096    -0.4004    -1.9467 H       
  39 H39            1.6284     1.7524     1.0156 H       
  40 H40            3.8136     1.6164    -0.1958 H       
  41 H41            3.8420     1.5724    -1.9747 H       
  42 H42            4.4463     3.8241    -1.1314 H       
  43 H43            2.9198     3.8739    -2.0457 H       
  44 H44            0.1408     6.1933     0.3527 H       
  45 H45            0.0341     6.1603     2.1342 H       
  46 H46           -0.6160     3.9631     1.1285 H       
  47 H47            0.8209     3.8229     2.1614 H       
  48 H48            1.7525     8.1231     0.6267 H       
  49 H49            4.7949     5.6353     0.5841 H       
  50 H50            4.4056     6.4780    -0.9454 H       
  51 H51            4.0448     8.4434     0.1970 H       
  52 H52            4.5380     7.6276     1.7083 H       
  53 H53           -0.7824    -2.2772    -1.0658 H       
  54 H54            0.7731    -2.3707    -1.9260 H       
  55 H55            0.7412    -2.3257    -0.1469 H       
  56 H56            2.4968     4.3323     2.5047 H       
  57 H57            3.7309     5.6116     2.5980 H       
  58 H58            2.1976     5.7878     3.4846 H       
  59 H59            0.6165     9.5169     2.5355 H       
  60 H60            0.2170     7.9141     3.1986 H       
  61 H61           -1.2298    -0.2002    -2.3602 H       
  62 H62            0.3634    11.2834     4.3630 H       
  63 H63            0.9566    11.3930     6.9418 H       
@<TRIPOS>BOND
   1    1    2 1
   2    1    6 1
   3    1   33 1
   4    1   34 1
   5    2    3 1
   6    2   35 1
   7    2   36 1
   8    3    4 1
   9    3   18 1
  10    3   25 1
  11    4    5 1
  12    4   37 1
  13    4   38 1
  14    5    8 1
  15    5   19 1
  16    5    6 1
  17    6    7 1
  18    6   39 1
  19    7   10 1
  20    7   26 1
  21    7   12 1
  22    8    9 1
  23    8   40 1
  24    8   41 1
  25    9   10 1
  26    9   42 1
  27    9   43 1
  28   10   15 1
  29   10   20 1
  30   11   12 1
  31   11   13 1
  32   11   44 1
  33   11   45 1
  34   12   46 1
  35   12   47 1
  36   13   15 1
  37   13   21 1
  38   13   14 1
  39   14   17 1
  40   14   22 1
  41   14   48 1
  42   15   16 1
  43   15   27 1
  44   16   17 1
  45   16   49 1
  46   16   50 1
  47   17   51 1
  48   17   52 1
  49   18   53 1
  50   18   54 1
  51   18   55 1
  52   21   56 1
  53   21   57 1
  54   21   58 1
  55   22   23 2
  56   22   24 1
  57   24   28 1
  58   24   59 1
  59   24   60 1
  60   25   61 1
  61   28   30 1
  62   28   29 1
  63   29   32 2
  64   30   31 2
  65   30   62 1
  66   31   32 1
  67   31   63 1

#	End of record

