#	Name: ASD01840154
#	Creating user name:	WinNT
#	Creation time:	15. 06. 2019 19:37

#	Modifying user name:	WinNT
#	Modification time:	15. 06. 2019 19:37

#	Program:	/corina/corina34_cracker 3.40 0067  02.08.2006

@<TRIPOS>MOLECULE
ASD01840154
  49   52    0    0    0
SMALL
NO_CHARGES


@<TRIPOS>ATOM
   1 C1             0.9588     0.1390     3.6397 C.ar    
   2 C2             1.2800    -1.1859     3.9245 C.ar    
   3 N3             2.4669    -1.6797     3.6648 N.ar    
   4 C4             3.4264    -0.9317     3.1124 C.ar    
   5 C5             3.1663     0.4259     2.7964 C.ar    
   6 C6             1.8929     0.9600     3.0743 C.ar    
   7 C7             1.5696     2.3970     2.7558 C.3     
   8 C8             0.2360    -2.0758     4.5482 C.3     
   9 C9             4.6965    -1.4737     2.8392 C.ar    
  10 C10            5.6604    -0.7004     2.2787 C.ar    
  11 C11            5.4126     0.6472     1.9619 C.ar    
  12 C12            4.1732     1.2110     2.2178 C.ar    
  13 C13            6.4806     1.4668     1.3525 C.2     
  14 N14            7.6878     0.9224     1.1019 N.am    
  15 O15            6.2703     2.6320     1.0772 O.2     
  16 C16            8.7466     1.7349     0.4978 C.3     
  17 C17           10.1678     1.2356     0.8145 C.3     
  18 C18            9.0502     1.3679    -0.9660 C.3     
  19 N19           10.4769     1.5192    -0.6044 N.3     
  20 C20           11.2480     0.4940    -1.1645 C.ar    
  21 C21           10.7547    -0.8078    -1.2242 C.ar    
  22 C22           11.5518    -1.7891    -1.7870 C.ar    
  23 C23           12.8077    -1.4467    -2.2701 C.ar    
  24 N24           13.2446    -0.2010    -2.1969 N.ar    
  25 C25           12.5107     0.7619    -1.6725 C.ar    
  26 O26           13.5968    -2.4029    -2.8240 O.3     
  27 C27           14.8780    -1.9892    -3.3031 C.3     
  28 F28           15.6212    -1.4549    -2.2452 F       
  29 F29           15.5539    -3.0912    -3.8380 F       
  30 F30           14.7132    -1.0167    -4.2952 F       
  31 H31           -0.0288     0.5156     3.8615 H       
  32 H32            1.1703     2.4639     1.7438 H       
  33 H33            0.8288     2.7684     3.4639 H       
  34 H34            2.4758     2.9982     2.8293 H       
  35 H35           -0.3369    -2.5693     3.7630 H       
  36 H36            0.7232    -2.8273     5.1694 H       
  37 H37           -0.4336    -1.4745     5.1632 H       
  38 H38            4.9042    -2.5066     3.0764 H       
  39 H39            6.6317    -1.1257     2.0734 H       
  40 H40            3.9846     2.2460     1.9738 H       
  41 H41            7.8556    -0.0074     1.3216 H       
  42 H42            8.6096     2.8033     0.6645 H       
  43 H43           10.7094     1.8689     1.5171 H       
  44 H44           10.2144     0.1772     1.0710 H       
  45 H45            8.7700     0.3482    -1.2303 H       
  46 H46            8.6989     2.1069    -1.6861 H       
  47 H47            9.7737    -1.0455    -0.8401 H       
  48 H48           11.2015    -2.8088    -1.8494 H       
  49 H49           12.9010     1.7680    -1.6301 H       
@<TRIPOS>BOND
   1    1    2 ar
   2    1    6 ar
   3    1   31 1
   4    2    3 ar
   5    2    8 1
   6    3    4 ar
   7    4    5 ar
   8    4    9 ar
   9    5    6 ar
  10    5   12 ar
  11    6    7 1
  12    7   32 1
  13    7   33 1
  14    7   34 1
  15    8   35 1
  16    8   36 1
  17    8   37 1
  18    9   10 ar
  19    9   38 1
  20   10   11 ar
  21   10   39 1
  22   11   12 ar
  23   11   13 1
  24   12   40 1
  25   13   14 am
  26   13   15 2
  27   14   16 1
  28   14   41 1
  29   16   17 1
  30   16   18 1
  31   16   42 1
  32   17   19 1
  33   17   43 1
  34   17   44 1
  35   18   19 1
  36   18   45 1
  37   18   46 1
  38   19   20 1
  39   20   21 ar
  40   20   25 ar
  41   21   22 ar
  42   21   47 1
  43   22   23 ar
  44   22   48 1
  45   23   24 ar
  46   23   26 1
  47   24   25 ar
  48   25   49 1
  49   26   27 1
  50   27   28 1
  51   27   29 1
  52   27   30 1

#	End of record

