#	Name: ASD05430571
#	Creating user name:	WinNT
#	Creation time:	15. 06. 2019 21:00

#	Modifying user name:	WinNT
#	Modification time:	15. 06. 2019 21:00

#	Program:	/corina/corina34_cracker 3.40 0067  02.08.2006

@<TRIPOS>MOLECULE
ASD05430571
  33   34    0    0    0
SMALL
NO_CHARGES


@<TRIPOS>ATOM
   1 N1            -0.0159     1.3187     0.0093 N.ar    
   2 C2             0.0021    -0.0041     0.0020 C.ar    
   3 C3             1.0885     2.0364     0.0026 C.ar    
   4 C4             2.3312     1.4073    -0.0131 C.ar    
   5 C5             2.3875    -0.0024    -0.0212 C.ar    
   6 C6             1.1860    -0.7075    -0.0126 C.ar    
   7 C7             1.0075     3.5412     0.0115 C.3     
   8 C8             1.1819    -2.2145    -0.0211 C.3     
   9 C9             0.4724    -2.7297     1.2328 C.3     
  10 C10            0.4463    -2.7155    -1.2655 C.3     
  11 C11            0.2480     4.0184    -1.2280 C.3     
  12 C12            0.2718     4.0049     1.2703 C.3     
  13 C13            3.7212     1.8650    -0.0249 C.2     
  14 C14            4.4947     0.7674    -0.0387 C.2     
  15 N15            3.7116    -0.3561    -0.0367 N.pl3   
  16 H16           -0.9329    -0.5446     0.0080 H       
  17 H17            2.0141     3.9593     0.0041 H       
  18 H18            2.2085    -2.5806    -0.0339 H       
  19 H19           -0.5542    -2.3636     1.2456 H       
  20 H20            0.4695    -3.8196     1.2266 H       
  21 H21            0.9965    -2.3727     2.1193 H       
  22 H22            0.9517    -2.3485    -2.1588 H       
  23 H23            0.4433    -3.8055    -1.2717 H       
  24 H24           -0.5804    -2.3495    -1.2527 H       
  25 H25           -0.7586     3.6003    -1.2207 H       
  26 H26            0.1894     5.1068    -1.2216 H       
  27 H27            0.7721     3.6880    -2.1249 H       
  28 H28            0.8129     3.6650     2.1533 H       
  29 H29            0.2132     5.0933     1.2767 H       
  30 H30           -0.7348     3.5868     1.2777 H       
  31 H31            4.0604     2.8903    -0.0232 H       
  32 H32            5.5746     0.7703    -0.0501 H       
  33 H33            4.0447    -1.2671    -0.0446 H       
@<TRIPOS>BOND
   1    1    2 ar
   2    1    3 ar
   3    2    6 ar
   4    2   16 1
   5    3    4 ar
   6    3    7 1
   7    4    5 ar
   8    4   13 1
   9    5    6 ar
  10    5   15 1
  11    6    8 1
  12    7   11 1
  13    7   12 1
  14    7   17 1
  15    8    9 1
  16    8   10 1
  17    8   18 1
  18    9   19 1
  19    9   20 1
  20    9   21 1
  21   10   22 1
  22   10   23 1
  23   10   24 1
  24   11   25 1
  25   11   26 1
  26   11   27 1
  27   12   28 1
  28   12   29 1
  29   12   30 1
  30   13   14 2
  31   13   31 1
  32   14   15 1
  33   14   32 1
  34   15   33 1

#	End of record

