#	Name: ASD00840099
#	Creating user name:	WinNT
#	Creation time:	15. 06. 2019 18:37

#	Modifying user name:	WinNT
#	Modification time:	15. 06. 2019 18:37

#	Program:	/corina/corina34_cracker 3.40 0067  02.08.2006

@<TRIPOS>MOLECULE
ASD00840099
  24   25    0    0    0
SMALL
NO_CHARGES


@<TRIPOS>ATOM
   1 C1            -0.0162     1.3462     0.0094 C.2     
   2 N2             0.0021    -0.0041     0.0020 N.pl3   
   3 C3             1.3150    -0.3911    -0.0126 C.2     
   4 C4             2.0532     0.7352    -0.0136 C.2     
   5 N5             1.2140     1.7814     0.0000 N.2     
   6 C6            -1.1652    -0.8893     0.0088 C.3     
   7 C7            -1.5855    -1.1903    -1.4312 C.3     
   8 C8            -5.1483    -2.4469    -1.4031 C.ar    
   9 C9            -4.0713    -1.5808    -1.4092 C.ar    
  10 C10           -2.7862    -2.1009    -1.4242 C.ar    
  11 C11           -2.6320    -3.4788    -1.4331 C.ar    
  12 C12           -3.7564    -4.2823    -1.4267 C.ar    
  13 N13           -4.9640    -3.7526    -1.4119 N.ar    
  14 H14           -0.9023     1.9637     0.0171 H       
  15 H15            1.6872    -1.4049    -0.0211 H       
  16 H16            3.1319     0.7869    -0.0231 H       
  17 H17           -0.9120    -1.8206     0.5156 H       
  18 H18           -1.9875    -0.4024     0.5331 H       
  19 H19           -1.8387    -0.2590    -1.9379 H       
  20 H20           -0.7632    -1.6772    -1.9554 H       
  21 H21           -6.1525    -2.0497    -1.3869 H       
  22 H22           -4.2288    -0.5123    -1.4022 H       
  23 H23           -1.6457    -3.9186    -1.4452 H       
  24 H24           -3.6449    -5.3565    -1.4335 H       
@<TRIPOS>BOND
   1    1    2 1
   2    1    5 2
   3    1   14 1
   4    2    3 1
   5    2    6 1
   6    3    4 2
   7    3   15 1
   8    4    5 1
   9    4   16 1
  10    6    7 1
  11    6   17 1
  12    6   18 1
  13    7   10 1
  14    7   19 1
  15    7   20 1
  16    8    9 ar
  17    8   13 ar
  18    8   21 1
  19    9   10 ar
  20    9   22 1
  21   10   11 ar
  22   11   12 ar
  23   11   23 1
  24   12   13 ar
  25   12   24 1

#	End of record

