#	Name: ASD01900491
#	Creating user name:	WinNT
#	Creation time:	15. 06. 2019 19:52

#	Modifying user name:	WinNT
#	Modification time:	15. 06. 2019 19:52

#	Program:	/corina/corina34_cracker 3.40 0067  02.08.2006

@<TRIPOS>MOLECULE
ASD01900491
  40   43    0    0    0
SMALL
NO_CHARGES


@<TRIPOS>ATOM
   1 C1             0.1623     1.5788     0.1798 C.ar    
   2 C2             0.3706     0.2101     0.0545 C.ar    
   3 C3             1.6418    -0.3107     0.1979 C.ar    
   4 C4             2.7117     0.5336     0.4672 C.ar    
   5 C5             2.5029     1.9009     0.5927 C.ar    
   6 C6             1.2319     2.4218     0.4489 C.ar    
   7 N7            -1.1259     2.1080     0.0287 N.pl3   
   8 N8             3.9998     0.0064     0.6125 N.pl3   
   9 C9            -1.2959     3.3858    -0.4925 C.ar    
  10 C10           -2.5659     3.9535    -0.5263 C.ar    
  11 C11           -2.7204     5.2253    -1.0471 C.ar    
  12 C12           -1.5955     5.8897    -1.5185 C.ar    
  13 C13           -0.3655     5.2664    -1.4542 C.ar    
  14 N14           -0.2469     4.0538    -0.9474 N.ar    
  15 C15           -3.7568     3.1926    -0.0031 C.3     
  16 F16           -4.9090     3.9729    -0.1476 F       
  17 F17           -3.9049     2.0039    -0.7258 F       
  18 F18           -3.5621     2.8946     1.3499 F       
  19 C19            6.3499     0.2985     1.5651 C.ar    
  20 C20            6.9072     1.2508     2.4397 C.ar    
  21 C21            8.2552     1.1490     2.7814 C.ar    
  22 C22            8.9892     0.1106     2.2426 C.ar    
  23 C23            8.3741    -0.7931     1.3861 C.ar    
  24 N24            7.1028    -0.6830     1.0742 N.ar    
  25 N25            4.7273     1.7382     2.1251 N.2     
  26 N26            5.9053     2.1235     2.7734 N.pl3   
  27 C27            4.9436     0.6735     1.3993 C.2     
  28 Cl28          -0.9669    -0.8445    -0.2815 Cl      
  29 H29            1.8040    -1.3740     0.1009 H       
  30 H30            3.3346     2.5570     0.8028 H       
  31 H31            1.0701     3.4852     0.5459 H       
  32 H32           -1.8994     1.5831     0.2878 H       
  33 H33            4.2378    -0.8220     0.1674 H       
  34 H34           -3.6939     5.6913    -1.0866 H       
  35 H35           -1.6823     6.8838    -1.9315 H       
  36 H36            0.5117     5.7795    -1.8197 H       
  37 H37            8.7133     1.8634     3.4493 H       
  38 H38           10.0359     0.0022     2.4858 H       
  39 H39            8.9531    -1.6030     0.9675 H       
  40 H40            5.9981     2.8867     3.3648 H       
@<TRIPOS>BOND
   1    1    2 ar
   2    1    6 ar
   3    1    7 1
   4    2    3 ar
   5    2   28 1
   6    3    4 ar
   7    3   29 1
   8    4    5 ar
   9    4    8 1
  10    5    6 ar
  11    5   30 1
  12    6   31 1
  13    7    9 1
  14    7   32 1
  15    8   27 1
  16    8   33 1
  17    9   10 ar
  18    9   14 ar
  19   10   11 ar
  20   10   15 1
  21   11   12 ar
  22   11   34 1
  23   12   13 ar
  24   12   35 1
  25   13   14 ar
  26   13   36 1
  27   15   16 1
  28   15   17 1
  29   15   18 1
  30   19   20 ar
  31   19   24 ar
  32   19   27 1
  33   20   21 ar
  34   20   26 1
  35   21   22 ar
  36   21   37 1
  37   22   23 ar
  38   22   38 1
  39   23   24 ar
  40   23   39 1
  41   25   26 1
  42   25   27 2
  43   26   40 1

#	End of record

