#	Name: ASD01884084
#	Creating user name:	WinNT
#	Creation time:	15. 06. 2019 19:47

#	Modifying user name:	WinNT
#	Modification time:	15. 06. 2019 19:47

#	Program:	/corina/corina34_cracker 3.40 0067  02.08.2006

@<TRIPOS>MOLECULE
ASD01884084
  43   47    0    0    0
SMALL
NO_CHARGES


@<TRIPOS>ATOM
   1 C1            -0.0168     1.3864     0.0097 C.ar    
   2 C2             0.0021    -0.0041     0.0020 C.ar    
   3 C3            -1.2028    -0.7052     0.0098 C.ar    
   4 C4            -2.4242    -0.0056     0.0252 C.ar    
   5 C5            -2.4202     1.3885     0.0322 C.ar    
   6 C6            -1.2388     2.0719     0.0308 C.ar    
   7 Cl7           -3.9226     2.2580     0.0507 Cl      
   8 C8            -1.5512    -2.1287     0.0059 C.2     
   9 C9            -2.8912    -2.2037     0.0186 C.2     
  10 N10           -3.4292    -0.9457     0.0302 N.pl3   
  11 C11           -4.8627    -0.6443     0.0457 C.3     
  12 C12           -5.3498    -0.4084    -1.3854 C.3     
  13 C13           -6.8501    -0.1934    -1.5946 C.3     
  14 C14           -5.8824     0.9839    -1.7299 C.3     
  15 C15            1.2542     2.1424     0.0016 C.2     
  16 C16            2.1423     2.0610     1.0941 C.2     
  17 C17            3.3018     2.7452     1.0976 C.2     
  18 N18            3.6719     3.5433     0.0545 N.pl3   
  19 C19            2.8652     3.6770    -1.0464 C.2     
  20 C20            1.5969     2.9463    -1.0948 C.2     
  21 C21            4.7782     4.3214    -0.1677 C.2     
  22 C22            4.6219     4.9002    -1.3770 C.2     
  23 N23            3.4567     4.4982    -1.8951 N.2     
  24 C24            5.9497     4.4977     0.7638 C.3     
  25 F25            6.9184     3.5280     0.4835 F       
  26 F26            6.4998     5.7716     0.5854 F       
  27 F27            5.5185     4.3571     2.0872 F       
  28 C28            0.7258     3.0584    -2.2259 C.1     
  29 N29            0.0348     3.1473    -3.1231 N.1     
  30 H30            0.9419    -0.5361    -0.0102 H       
  31 H31           -1.2459     3.1519     0.0367 H       
  32 H32           -0.8610    -2.9593    -0.0056 H       
  33 H33           -3.4606    -3.1214     0.0195 H       
  34 H34           -5.4058    -1.4834     0.4807 H       
  35 H35           -5.0393     0.2510     0.6418 H       
  36 H36           -4.8053    -0.9457    -2.1619 H       
  37 H37           -7.2925    -0.5889    -2.5089 H       
  38 H38           -7.4901    -0.2200    -0.7127 H       
  39 H39           -5.8857     1.7319    -0.9370 H       
  40 H40           -5.6881     1.3630    -2.7332 H       
  41 H41            1.8883     1.4406     1.9409 H       
  42 H42            3.9580     2.6603     1.9512 H       
  43 H43            5.3212     5.5756    -1.8474 H       
@<TRIPOS>BOND
   1    1    2 ar
   2    1   15 1
   3    1    6 ar
   4    2    3 ar
   5    2   30 1
   6    3    4 ar
   7    3    8 1
   8    4    5 ar
   9    4   10 1
  10    5    6 ar
  11    5    7 1
  12    6   31 1
  13    8    9 2
  14    8   32 1
  15    9   10 1
  16    9   33 1
  17   10   11 1
  18   11   12 1
  19   11   34 1
  20   11   35 1
  21   12   13 1
  22   12   14 1
  23   12   36 1
  24   13   14 1
  25   13   37 1
  26   13   38 1
  27   14   39 1
  28   14   40 1
  29   15   16 1
  30   15   20 2
  31   16   17 2
  32   16   41 1
  33   17   18 1
  34   17   42 1
  35   18   19 1
  36   18   21 1
  37   19   20 1
  38   19   23 2
  39   20   28 1
  40   21   22 2
  41   21   24 1
  42   22   23 1
  43   22   43 1
  44   24   25 1
  45   24   26 1
  46   24   27 1
  47   28   29 3

#	End of record

