#	Name: ASD05740066
#	Creating user name:	WinNT
#	Creation time:	15. 06. 2019 21:02

#	Modifying user name:	WinNT
#	Modification time:	15. 06. 2019 21:02

#	Program:	/corina/corina34_cracker 3.40 0067  02.08.2006

@<TRIPOS>MOLECULE
ASD05740066
  47   50    0    0    0
SMALL
NO_CHARGES


@<TRIPOS>ATOM
   1 C1             1.6961     1.3799     1.0815 C.ar    
   2 C2             5.2912     8.1838     2.5611 C.3     
   3 C3             1.5646     9.8121     0.0376 C.3     
   4 C4            -0.2477     3.8982     0.2635 C.ar    
   5 C5             1.0126     3.3451     0.0441 C.ar    
   6 C6            -0.4099     5.2524     0.3093 C.ar    
   7 C7             0.6965     6.0916     0.1347 C.ar    
   8 C8             1.9715     5.5391    -0.0872 C.ar    
   9 C9             2.1184     4.1608    -0.1307 C.ar    
  10 C10            0.5524     7.5483     0.1783 C.2     
  11 C11            1.6640     8.3088     0.0014 C.2     
  12 C12            2.9112     7.6879    -0.2167 C.2     
  13 O13            3.0364     6.3521    -0.2556 O.3     
  14 C14            1.8878    10.3036     1.4250 C.2     
  15 N15            0.9909    10.5790     2.4091 N.pl3   
  16 O16            3.8999     8.3814    -0.3738 O.2     
  17 O17            1.1577     1.9959     0.0017 O.3     
  18 C18           -0.7926     8.1864     0.4126 C.3     
  19 C19            3.1273    10.5463     1.9213 C.2     
  20 C20            2.9825    10.9822     3.2462 C.2     
  21 N21            1.7063    11.0068     3.5349 N.2     
  22 N22            4.3431    10.3880     1.2290 N.am    
  23 S23            5.6943     9.8726     2.0357 S.o2    
  24 O24            5.7822    10.7370     3.1601 O.2     
  25 O25            6.7106     9.8566     1.0427 O.2     
  26 N26            1.9435     0.0811     1.0271 N.ar    
  27 C27            2.4692    -0.5515     2.0632 C.ar    
  28 C28            2.7607     0.1632     3.2144 C.ar    
  29 C29            2.4885     1.5221     3.2364 C.ar    
  30 N30            1.9668     2.0928     2.1630 N.ar    
  31 H31            5.0820     7.5707     1.6845 H       
  32 H32            6.1352     7.7618     3.1067 H       
  33 H33            4.4141     8.2041     3.2080 H       
  34 H34            2.2712    10.2402    -0.6733 H       
  35 H35            0.5522    10.1158    -0.2288 H       
  36 H36           -1.1024     3.2508     0.3938 H       
  37 H37           -1.3891     5.6752     0.4793 H       
  38 H38            3.0919     3.7247    -0.2999 H       
  39 H39            0.0269    10.4945     2.3432 H       
  40 H40           -1.5480     7.4093     0.5291 H       
  41 H41           -0.7540     8.7939     1.3167 H       
  42 H42           -1.0486     8.8173    -0.4385 H       
  43 H43            3.7868    11.2554     3.9131 H       
  44 H44            4.3891    10.5809     0.2795 H       
  45 H45            2.6685    -1.6117     2.0127 H       
  46 H46            3.1900    -0.3278     4.0752 H       
  47 H47            2.7031     2.1084     4.1176 H       
@<TRIPOS>BOND
   1    1   26 ar
   2    1   17 1
   3    1   30 ar
   4    2   23 1
   5    2   31 1
   6    2   32 1
   7    2   33 1
   8    3   11 1
   9    3   14 1
  10    3   34 1
  11    3   35 1
  12    4    5 ar
  13    4    6 ar
  14    4   36 1
  15    5   17 1
  16    5    9 ar
  17    6    7 ar
  18    6   37 1
  19    7    8 ar
  20    7   10 1
  21    8    9 ar
  22    8   13 1
  23    9   38 1
  24   10   11 2
  25   10   18 1
  26   11   12 1
  27   12   13 1
  28   12   16 2
  29   14   15 1
  30   14   19 2
  31   15   21 1
  32   15   39 1
  33   18   40 1
  34   18   41 1
  35   18   42 1
  36   19   20 1
  37   19   22 1
  38   20   21 2
  39   20   43 1
  40   22   23 am
  41   22   44 1
  42   23   24 2
  43   23   25 2
  44   26   27 ar
  45   27   28 ar
  46   27   45 1
  47   28   29 ar
  48   28   46 1
  49   29   30 ar
  50   29   47 1

#	End of record

