#	Name: ASD03080117
#	Creating user name:	WinNT
#	Creation time:	15. 06. 2019 20:26

#	Modifying user name:	WinNT
#	Modification time:	15. 06. 2019 20:26

#	Program:	/corina/corina34_cracker 3.40 0067  02.08.2006

@<TRIPOS>MOLECULE
ASD03080117
  27   29    0    0    0
SMALL
NO_CHARGES


@<TRIPOS>ATOM
   1 N1             0.0175    -1.1399    -0.0042 N.1     
   2 C2             0.0021    -0.0041     0.0020 C.1     
   3 C3            -0.0173     1.4278     0.0099 C.ar    
   4 C4             1.1809     2.1448     0.0023 C.ar    
   5 C5             1.1589     3.5248     0.0094 C.ar    
   6 C6            -0.0463     4.2013     0.0246 C.ar    
   7 C7            -1.2443     3.4969     0.0322 C.ar    
   8 C8            -1.2338     2.1115     0.0193 C.ar    
   9 N9            -2.4640     4.1885     0.0480 N.pl3   
  10 N10           -3.6415     3.6638     0.0569 N.2     
  11 N11           -4.5305     4.5925     0.0707 N.2     
  12 C12           -3.9359     5.7902     0.0711 C.2     
  13 N13           -2.6320     5.5829     0.0632 N.2     
  14 C14           -4.6163     7.1093     0.0849 C.ar    
  15 C15           -3.8749     8.2878     0.0832 C.ar    
  16 N16           -4.4775     9.4596     0.0959 N.ar    
  17 C17           -5.7921     9.5669     0.1101 C.ar    
  18 C18           -6.5990     8.4444     0.1122 C.ar    
  19 C19           -6.0128     7.1888     0.0939 C.ar    
  20 Cl20          -6.9864     5.7515     0.0958 Cl      
  21 H21            2.1246     1.6197    -0.0088 H       
  22 H22            2.0865     4.0778     0.0036 H       
  23 H23           -0.0571     5.2813     0.0308 H       
  24 H24           -2.1639     1.5626     0.0250 H       
  25 H25           -2.7960     8.2411     0.0719 H       
  26 H26           -6.2452    10.5472     0.1205 H       
  27 H27           -7.6742     8.5448     0.1243 H       
@<TRIPOS>BOND
   1    1    2 3
   2    2    3 1
   3    3    4 ar
   4    3    8 ar
   5    4    5 ar
   6    4   21 1
   7    5    6 ar
   8    5   22 1
   9    6    7 ar
  10    6   23 1
  11    7    8 ar
  12    7    9 1
  13    8   24 1
  14    9   10 1
  15    9   13 1
  16   10   11 2
  17   11   12 1
  18   12   13 2
  19   12   14 1
  20   14   15 ar
  21   14   19 ar
  22   15   16 ar
  23   15   25 1
  24   16   17 ar
  25   17   18 ar
  26   17   26 1
  27   18   19 ar
  28   18   27 1
  29   19   20 1

#	End of record

