#	Name: ASD08070007
#	Creating user name:	WinNT
#	Creation time:	15. 06. 2019 21:14

#	Modifying user name:	WinNT
#	Modification time:	15. 06. 2019 21:14

#	Program:	/corina/corina34_cracker 3.40 0067  02.08.2006

@<TRIPOS>MOLECULE
ASD08070007
  40   41    0    0    0
SMALL
NO_CHARGES


@<TRIPOS>ATOM
   1 C1            -0.0850     0.2702     0.6109 C.ar    
   2 C2             0.1004    -1.1067     0.6088 C.ar    
   3 C3             1.3666    -1.6333     0.5188 C.ar    
   4 C4             2.4756    -0.7861     0.4283 C.ar    
   5 C5             2.2942     0.6029     0.4295 C.ar    
   6 C6             0.9777     1.1137     0.5239 C.ar    
   7 S7             4.1917    -1.1558     0.3026 S.3     
   8 C8             4.6065     0.5486     0.2561 C.2     
   9 C9             3.5067     1.3046     0.3320 C.2     
  10 C10            5.9756     1.0731     0.1489 C.2     
  11 N11            7.0192     0.2232     0.0781 N.am    
  12 O12            6.1666     2.2743     0.1242 O.2     
  13 C13            8.3836     0.7459    -0.0287 C.3     
  14 C14            8.9132     1.0531     1.3483 C.2     
  15 C15            9.2790    -0.2986    -0.6982 C.3     
  16 C16            8.7995    -0.5382    -2.1312 C.3     
  17 C17            8.9982     0.7356    -2.9552 C.3     
  18 C18            9.6054    -1.6796    -2.7546 C.3     
  19 O19            8.2218     0.8556     2.3193 O.2     
  20 O20           10.1529     1.5460     1.4962 O.3     
  21 C21           10.5968     1.8182     2.8516 C.3     
  22 H22           -1.0841     0.6747     0.6779 H       
  23 H23           -0.7529    -1.7650     0.6785 H       
  24 H24            1.5056    -2.7043     0.5183 H       
  25 H25            0.8161     2.1815     0.5265 H       
  26 H26            3.5478     2.3838     0.3189 H       
  27 H27            6.8669    -0.7345     0.0978 H       
  28 H28            8.3779     1.6569    -0.6273 H       
  29 H29           10.3077     0.0615    -0.7147 H       
  30 H30            9.2298    -1.2322    -0.1377 H       
  31 H31            7.7423    -0.8032    -2.1211 H       
  32 H32           10.0554     1.0006    -2.9653 H       
  33 H33            8.6566     0.5649    -3.9761 H       
  34 H34            8.4240     1.5488    -2.5111 H       
  35 H35            9.5342    -2.5633    -2.1204 H       
  36 H36            9.2066    -1.9086    -3.7428 H       
  37 H37           10.6496    -1.3802    -2.8446 H       
  38 H38            9.9334     2.5512     3.3108 H       
  39 H39           10.5770     0.8961     3.4325 H       
  40 H40           11.6130     2.2117     2.8290 H       
@<TRIPOS>BOND
   1    1    2 ar
   2    1    6 ar
   3    1   22 1
   4    2    3 ar
   5    2   23 1
   6    3    4 ar
   7    3   24 1
   8    4    5 ar
   9    4    7 1
  10    5    6 ar
  11    5    9 1
  12    6   25 1
  13    7    8 1
  14    8    9 2
  15    8   10 1
  16    9   26 1
  17   10   11 am
  18   10   12 2
  19   11   13 1
  20   11   27 1
  21   13   14 1
  22   13   15 1
  23   13   28 1
  24   14   19 2
  25   14   20 1
  26   15   16 1
  27   15   29 1
  28   15   30 1
  29   16   17 1
  30   16   18 1
  31   16   31 1
  32   17   32 1
  33   17   33 1
  34   17   34 1
  35   18   35 1
  36   18   36 1
  37   18   37 1
  38   20   21 1
  39   21   38 1
  40   21   39 1
  41   21   40 1

#	End of record

