#	Name: ASD07930277
#	Creating user name:	WinNT
#	Creation time:	15. 06. 2019 21:12

#	Modifying user name:	WinNT
#	Modification time:	15. 06. 2019 21:12

#	Program:	/corina/corina34_cracker 3.40 0067  02.08.2006

@<TRIPOS>MOLECULE
ASD07930277
  55   59    0    0    0
SMALL
NO_CHARGES


@<TRIPOS>ATOM
   1 C1             1.5667    -0.5865    -2.4617 C.2     
   2 C2             2.0888    -1.8372    -2.2761 C.2     
   3 C3             3.3932    -1.9685    -1.6223 C.2     
   4 N4             4.0423    -0.8619    -1.2205 N.am    
   5 C5             3.4967     0.3860    -1.4204 C.2     
   6 C6             2.2866     0.5328    -2.0255 C.2     
   7 C7             5.3491    -0.9580    -0.5562 C.3     
   8 C8             6.2392     0.1739    -1.0908 C.3     
   9 N9             5.5927     1.4586    -0.7876 N.am    
  10 C10            4.2545     1.5722    -0.9642 C.2     
  11 C11            6.3807     2.5947    -0.3036 C.3     
  12 O12            3.6879     2.6268    -0.7522 O.2     
  13 O13            3.8849    -3.0699    -1.4441 O.2     
  14 N14            1.3898    -2.9701    -2.7024 N.pl3   
  15 C15            1.7744    -3.8386    -3.6743 C.2     
  16 N16            0.8635    -4.7665    -3.7864 N.2     
  17 C17           -0.1213    -4.5316    -2.9062 C.2     
  18 C18            0.1891    -3.4186    -2.2148 C.2     
  19 C19           -1.3583    -5.3717    -2.7194 C.3     
  20 C20            6.7393     3.5048    -1.4801 C.3     
  21 O21            5.5899     4.2618    -1.8644 O.3     
  22 C22            5.6907     5.0031    -2.9965 C.ar    
  23 N23            6.7744     4.9108    -3.7456 N.ar    
  24 C24            6.9152     5.6128    -4.8551 C.ar    
  25 C25            5.9259     6.4806    -5.2810 C.ar    
  26 C26            4.7672     6.6135    -4.5286 C.ar    
  27 C27            4.6428     5.8554    -3.3641 C.ar    
  28 C28            3.4253     5.9594    -2.5232 C.2     
  29 N29            3.3157     5.3769    -1.3380 N.2     
  30 C30            2.2071     5.5417    -0.7029 C.2     
  31 S31            1.1353     6.5138    -1.6126 S.3     
  32 C32            2.3346     6.6596    -2.8950 C.2     
  33 F33            6.0860     7.1921    -6.4182 F       
  34 C34            1.8983     4.9587     0.6520 C.3     
  35 F35            2.6148     5.6530     1.6327 F       
  36 F36            0.5276     5.0729     0.9074 F       
  37 F37            2.2658     3.6091     0.6737 F       
  38 H38            0.6088    -0.4629    -2.9448 H       
  39 H39            1.8776     1.5217    -2.1709 H       
  40 H40            5.2234    -0.8501     0.5211 H       
  41 H41            5.8057    -1.9223    -0.7795 H       
  42 H42            7.2151     0.1319    -0.6071 H       
  43 H43            6.3571     0.0687    -2.1693 H       
  44 H44            5.7977     3.1568     0.4260 H       
  45 H45            7.2946     2.2297     0.1651 H       
  46 H46            2.6814    -3.7718    -4.2568 H       
  47 H47           -0.3984    -2.9627    -1.4316 H       
  48 H48           -1.1652    -6.1417    -1.9725 H       
  49 H49           -2.1802    -4.7388    -2.3846 H       
  50 H50           -1.6244    -5.8422    -3.6659 H       
  51 H51            7.5390     4.1836    -1.1837 H       
  52 H52            7.0720     2.8969    -2.3214 H       
  53 H53            7.8176     5.5079    -5.4392 H       
  54 H54            3.9798     7.2844    -4.8389 H       
  55 H55            2.2155     7.2086    -3.8174 H       
@<TRIPOS>BOND
   1    1    2 2
   2    1    6 1
   3    1   38 1
   4    2    3 1
   5    2   14 1
   6    3    4 am
   7    3   13 2
   8    4    5 1
   9    4    7 1
  10    5    6 2
  11    5   10 1
  12    6   39 1
  13    7    8 1
  14    7   40 1
  15    7   41 1
  16    8    9 1
  17    8   42 1
  18    8   43 1
  19    9   10 am
  20    9   11 1
  21   10   12 2
  22   11   20 1
  23   11   44 1
  24   11   45 1
  25   14   15 1
  26   14   18 1
  27   15   16 2
  28   15   46 1
  29   16   17 1
  30   17   18 2
  31   17   19 1
  32   18   47 1
  33   19   48 1
  34   19   49 1
  35   19   50 1
  36   20   21 1
  37   20   51 1
  38   20   52 1
  39   21   22 1
  40   22   23 ar
  41   22   27 ar
  42   23   24 ar
  43   24   25 ar
  44   24   53 1
  45   25   26 ar
  46   25   33 1
  47   26   27 ar
  48   26   54 1
  49   27   28 1
  50   28   29 1
  51   28   32 2
  52   29   30 2
  53   30   31 1
  54   30   34 1
  55   31   32 1
  56   32   55 1
  57   34   35 1
  58   34   36 1
  59   34   37 1

#	End of record

