#	Name: ASD01209041
#	Creating user name:	WinNT
#	Creation time:	15. 06. 2019 19:10

#	Modifying user name:	WinNT
#	Modification time:	15. 06. 2019 19:10

#	Program:	/corina/corina34_cracker 3.40 0067  02.08.2006

@<TRIPOS>MOLECULE
ASD01209041
  63   67    0    0    0
SMALL
NO_CHARGES


@<TRIPOS>ATOM
   1 C1            -0.2875     1.6206     0.1003 C.3     
   2 C2            -0.1557     0.1010    -0.0399 C.3     
   3 C3             0.8190    -0.4162     1.0226 C.3     
   4 C4             2.1624     0.3006     0.8636 C.3     
   5 C5             1.0987     2.2587    -0.0230 C.3     
   6 C6            -1.5248    -0.5521     0.1603 C.3     
   7 C7            -1.4308    -2.0440    -0.1658 C.3     
   8 C8            -2.8112    -2.6484    -0.1554 C.2     
   9 O9            -3.0735    -3.5483     0.6144 O.2     
  10 N10           -0.5978    -2.7116     0.8376 N.pl3   
  11 C11            0.4557    -3.5487     0.5686 C.ar    
  12 C12            0.9703    -3.9635     1.8119 C.ar    
  13 C13            0.1515    -3.3162     2.8319 C.2     
  14 N14           -0.7449    -2.5932     2.2234 N.2     
  15 N15           -3.7544    -2.1890    -1.0015 N.am    
  16 O16            1.9640     1.7115     0.9739 O.3     
  17 C17            1.0418    -4.0102    -0.6070 C.ar    
  18 C18            2.1090    -4.8602    -0.5514 C.ar    
  19 C19            2.6259    -5.2766     0.6740 C.ar    
  20 C20            2.0651    -4.8342     1.8537 C.ar    
  21 S21            2.7203    -5.3631     3.4015 S.o2    
  22 O22            1.6226    -5.2655     4.2985 O.2     
  23 O23            3.3240    -6.6175     3.1162 O.2     
  24 C24            3.9839    -4.1256     3.8047 C.3     
  25 C25            4.8338    -4.3650     5.0542 C.3     
  26 C26            5.4497    -4.5411     3.6647 C.3     
  27 C27           -5.0383    -2.7511    -0.9919 C.2     
  28 C28           -5.4765    -3.7923    -0.1580 C.2     
  29 C29           -6.7713    -4.0451    -0.4555 C.2     
  30 N30           -7.1429    -3.1991    -1.4392 N.pl3   
  31 N31           -6.0424    -2.3926    -1.7567 N.2     
  32 C32           -8.4672    -3.1319    -2.0620 C.3     
  33 O33            3.6893    -6.1235     0.7067 O.3     
  34 C34            4.2230    -6.5435    -0.5506 C.3     
  35 H35           -0.9364     2.0042    -0.6870 H       
  36 H36           -0.7137     1.8610     1.0743 H       
  37 H37            0.2240    -0.1420    -1.0323 H       
  38 H38            0.4151    -0.2170     2.0152 H       
  39 H39            0.9613    -1.4893     0.8948 H       
  40 H40            2.8466    -0.0324     1.6439 H       
  41 H41            2.5848     0.0683    -0.1140 H       
  42 H42            1.5072     2.0520    -1.0122 H       
  43 H43            1.0166     3.3364     0.1186 H       
  44 H44           -1.8397    -0.4257     1.1961 H       
  45 H45           -2.2523    -0.0808    -0.5006 H       
  46 H46           -0.9851    -2.1729    -1.1521 H       
  47 H47            0.2705    -3.4155     3.9007 H       
  48 H48           -3.5446    -1.4693    -1.6171 H       
  49 H49            0.6517    -3.6959    -1.5637 H       
  50 H50            2.5576    -5.2143    -1.4679 H       
  51 H51            3.7271    -3.0948     3.5606 H       
  52 H52            5.1365    -3.4917     5.6319 H       
  53 H53            4.6338    -5.2661     5.6339 H       
  54 H54            5.6548    -5.5580     3.3303 H       
  55 H55            6.1576    -3.7836     3.3283 H       
  56 H56           -4.8846    -4.3010     0.5885 H       
  57 H57           -7.3969    -4.7917     0.0111 H       
  58 H58           -9.0916    -2.4272    -1.5129 H       
  59 H59           -8.3664    -2.7996    -3.0952 H       
  60 H60           -8.9289    -4.1191    -2.0413 H       
  61 H61            3.4512    -7.0643    -1.1172 H       
  62 H62            4.5599    -5.6718    -1.1117 H       
  63 H63            5.0651    -7.2147    -0.3819 H       
@<TRIPOS>BOND
   1    1    2 1
   2    1    5 1
   3    1   35 1
   4    1   36 1
   5    2    3 1
   6    2    6 1
   7    2   37 1
   8    3    4 1
   9    3   38 1
  10    3   39 1
  11    4   16 1
  12    4   40 1
  13    4   41 1
  14    5   16 1
  15    5   42 1
  16    5   43 1
  17    6    7 1
  18    6   44 1
  19    6   45 1
  20    7    8 1
  21    7   10 1
  22    7   46 1
  23    8    9 2
  24    8   15 am
  25   10   11 1
  26   10   14 1
  27   11   12 ar
  28   11   17 ar
  29   12   13 1
  30   12   20 ar
  31   13   14 2
  32   13   47 1
  33   15   27 1
  34   15   48 1
  35   17   18 ar
  36   17   49 1
  37   18   19 ar
  38   18   50 1
  39   19   20 ar
  40   19   33 1
  41   20   21 1
  42   21   22 2
  43   21   23 2
  44   21   24 1
  45   24   25 1
  46   24   26 1
  47   24   51 1
  48   25   26 1
  49   25   52 1
  50   25   53 1
  51   26   54 1
  52   26   55 1
  53   27   28 1
  54   27   31 2
  55   28   29 2
  56   28   56 1
  57   29   30 1
  58   29   57 1
  59   30   31 1
  60   30   32 1
  61   32   58 1
  62   32   59 1
  63   32   60 1
  64   33   34 1
  65   34   61 1
  66   34   62 1
  67   34   63 1

#	End of record

