#	Name: ASD06710044
#	Creating user name:	WinNT
#	Creation time:	15. 06. 2019 21:08

#	Modifying user name:	WinNT
#	Modification time:	15. 06. 2019 21:08

#	Program:	/corina/corina34_cracker 3.40 0067  02.08.2006

@<TRIPOS>MOLECULE
ASD06710044
  51   52    0    0    0
SMALL
NO_CHARGES


@<TRIPOS>ATOM
   1 C1            -0.0212     1.5202     0.1328 C.3     
   2 C2            -1.4307    -0.5277    -0.1159 C.3     
   3 C3             1.7383    -2.0821    -2.6290 C.ar    
   4 C4             2.2117    -1.1010    -3.4888 C.ar    
   5 C5             1.9665     0.2368    -3.2132 C.ar    
   6 C6             1.2516     0.5887    -2.0835 C.ar    
   7 C7             0.7811    -0.3908    -1.2287 C.ar    
   8 C8             1.0195    -1.7247    -1.5035 C.ar    
   9 C9            -0.0778    -1.4015     2.0764 C.ar    
  10 C10            0.6572    -0.6028     1.2200 C.ar    
  11 C11            0.0021    -0.0041     0.0020 C.3     
  12 C12            0.5205    -1.9521     3.1944 C.ar    
  13 C13            1.8602    -1.7024     3.4567 C.ar    
  14 C14            2.5954    -0.9001     2.5955 C.ar    
  15 C15            1.9919    -0.3521     1.4791 C.ar    
  16 O16            2.9148    -1.4498    -4.5987 O.3     
  17 O17            2.4510    -2.2422     4.5555 O.3     
  18 C18            3.0572    -3.5269     4.4011 C.3     
  19 C19            3.6654    -3.9675     5.7341 C.3     
  20 Br20           2.0694    -3.9064    -3.0006 Br      
  21 Br21           4.4210    -0.5566     2.9491 Br      
  22 Br22           2.6101     1.5772    -4.3815 Br      
  23 Br23          -0.4857    -3.0438     4.3655 Br      
  24 C24            2.5913    -3.9266     6.8230 C.3     
  25 Br25           3.3728    -4.4927     8.5359 Br      
  26 Br26           4.3577    -5.7997     5.5649 Br      
  27 C27            2.1673    -1.6780    -5.7951 C.3     
  28 C28            3.1224    -2.0575    -6.9285 C.3     
  29 C29            3.9703    -3.2571    -6.5009 C.3     
  30 Br30           5.1975    -3.7448    -7.9574 Br      
  31 Br31           2.0842    -2.5267    -8.5308 Br      
  32 H32            0.9995     1.8932     0.2168 H       
  33 H33           -0.4950     1.9532    -0.7481 H       
  34 H34           -0.5846     1.7999     1.0230 H       
  35 H35           -1.9941    -0.2480     0.7743 H       
  36 H36           -1.9045    -0.0947    -0.9968 H       
  37 H37           -1.4141    -1.6136    -0.2090 H       
  38 H38            1.0608     1.6297    -1.8684 H       
  39 H39            0.6508    -2.4877    -0.8340 H       
  40 H40           -1.1215    -1.5918     1.8742 H       
  41 H41            2.5637     0.2721     0.8084 H       
  42 H42            2.3030    -4.2495     4.0894 H       
  43 H43            3.8406    -3.4705     3.6453 H       
  44 H44            4.4800    -3.2945     6.0019 H       
  45 H45            2.2075    -2.9108     6.9168 H       
  46 H46            1.7767    -4.5996     6.5552 H       
  47 H47            1.4577    -2.4889    -5.6310 H       
  48 H48            1.6265    -0.7707    -6.0641 H       
  49 H49            3.7743    -1.2131    -7.1524 H       
  50 H50            4.5459    -2.9969    -5.6126 H       
  51 H51            3.3184    -4.1015    -6.2770 H       
@<TRIPOS>BOND
   1    1   11 1
   2    1   32 1
   3    1   33 1
   4    1   34 1
   5    2   11 1
   6    2   35 1
   7    2   36 1
   8    2   37 1
   9    3    4 ar
  10    3   20 1
  11    3    8 ar
  12    4    5 ar
  13    4   16 1
  14    5    6 ar
  15    5   22 1
  16    6    7 ar
  17    6   38 1
  18    7    8 ar
  19    7   11 1
  20    8   39 1
  21    9   10 ar
  22    9   12 ar
  23    9   40 1
  24   10   11 1
  25   10   15 ar
  26   12   13 ar
  27   12   23 1
  28   13   14 ar
  29   13   17 1
  30   14   15 ar
  31   14   21 1
  32   15   41 1
  33   16   27 1
  34   17   18 1
  35   18   19 1
  36   18   42 1
  37   18   43 1
  38   19   24 1
  39   19   26 1
  40   19   44 1
  41   24   25 1
  42   24   45 1
  43   24   46 1
  44   27   28 1
  45   27   47 1
  46   27   48 1
  47   28   29 1
  48   28   31 1
  49   28   49 1
  50   29   30 1
  51   29   50 1
  52   29   51 1

#	End of record

