#	Name: ASD01028253
#	Creating user name:	WinNT
#	Creation time:	15. 06. 2019 18:56

#	Modifying user name:	WinNT
#	Modification time:	15. 06. 2019 18:56

#	Program:	/corina/corina34_cracker 3.40 0067  02.08.2006

@<TRIPOS>MOLECULE
ASD01028253
  47   51    0    0    0
SMALL
NO_CHARGES


@<TRIPOS>ATOM
   1 C1            -0.0165     1.3658     0.0096 C.ar    
   2 C2             0.0021    -0.0041     0.0020 C.ar    
   3 C3             1.1871     2.0786     0.0019 C.ar    
   4 N4             2.3453     1.4655    -0.0129 N.ar    
   5 C5             2.4265     0.1343    -0.0208 C.ar    
   6 C6             1.2509    -0.6527    -0.0134 C.ar    
   7 C7             3.6823    -0.5215    -0.0362 C.ar    
   8 C8             3.6925    -1.9066    -0.0433 C.ar    
   9 C9             2.4925    -2.6050    -0.0352 C.ar    
  10 N10            1.3341    -1.9873    -0.0204 N.ar    
  11 N11            4.8661     0.2018    -0.0444 N.pl3   
  12 C12            6.1526    -0.4989    -0.0603 C.3     
  13 C13            7.2733     0.5086    -0.0666 C.2     
  14 N14            7.8000     1.1254    -1.1618 N.pl3   
  15 C15            8.7940     1.9595    -0.7148 C.2     
  16 N16            8.8615     1.8471     0.6042 N.2     
  17 C17            7.9409     0.9742     1.0153 C.2     
  18 N18            7.5128     1.0467    -2.5281 N.2     
  19 C19            8.1885     1.7675    -3.3954 C.2     
  20 C20            9.2159     2.6335    -2.9671 C.2     
  21 C21            9.5170     2.7316    -1.6453 C.2     
  22 C22            7.8672     1.6685    -4.8402 C.ar    
  23 O23           -1.2013     2.0306     0.0188 O.3     
  24 C24           -1.1440     3.4584     0.0263 C.3     
  25 C25            6.8541     0.8154    -5.2735 C.ar    
  26 C26            6.5575     0.7257    -6.6203 C.ar    
  27 C27            7.2671     1.4831    -7.5403 C.ar    
  28 C28            8.2764     2.3330    -7.1127 C.ar    
  29 C29            8.5739     2.4327    -5.7668 C.ar    
  30 F30            5.5755    -0.1012    -7.0412 F       
  31 F31            6.9748     1.3926    -8.8562 F       
  32 F32            8.9653     3.0686    -8.0123 F       
  33 H33           -0.9171    -0.5710     0.0081 H       
  34 H34            1.1613     3.1582     0.0079 H       
  35 H35            4.6307    -2.4414    -0.0554 H       
  36 H36            2.5125    -3.6848    -0.0412 H       
  37 H37            4.8421     1.1715    -0.0396 H       
  38 H38            6.2346    -1.1281     0.8259 H       
  39 H39            6.2171    -1.1197    -0.9539 H       
  40 H40            7.7626     0.6820     2.0397 H       
  41 H41            9.7638     3.2196    -3.6901 H       
  42 H42           10.3031     3.3929    -1.3121 H       
  43 H43           -0.6118     3.7960     0.9156 H       
  44 H44           -0.6203     3.8057    -0.8643 H       
  45 H45           -2.1563     3.8626     0.0332 H       
  46 H46            6.3017     0.2248    -4.5577 H       
  47 H47            9.3599     3.0946    -5.4345 H       
@<TRIPOS>BOND
   1    1    2 ar
   2    1    3 ar
   3    1   23 1
   4    2    6 ar
   5    2   33 1
   6    3    4 ar
   7    3   34 1
   8    4    5 ar
   9    5    6 ar
  10    5    7 ar
  11    6   10 ar
  12    7    8 ar
  13    7   11 1
  14    8    9 ar
  15    8   35 1
  16    9   10 ar
  17    9   36 1
  18   11   12 1
  19   11   37 1
  20   12   13 1
  21   12   38 1
  22   12   39 1
  23   13   14 1
  24   13   17 2
  25   14   15 1
  26   14   18 1
  27   15   16 2
  28   15   21 1
  29   16   17 1
  30   17   40 1
  31   18   19 2
  32   19   20 1
  33   19   22 1
  34   20   21 2
  35   20   41 1
  36   21   42 1
  37   22   25 ar
  38   22   29 ar
  39   23   24 1
  40   24   43 1
  41   24   44 1
  42   24   45 1
  43   25   26 ar
  44   25   46 1
  45   26   27 ar
  46   26   30 1
  47   27   28 ar
  48   27   31 1
  49   28   29 ar
  50   28   32 1
  51   29   47 1

#	End of record

