#	Name: ASD01880141
#	Creating user name:	WinNT
#	Creation time:	15. 06. 2019 19:40

#	Modifying user name:	WinNT
#	Modification time:	15. 06. 2019 19:40

#	Program:	/corina/corina34_cracker 3.40 0067  02.08.2006

@<TRIPOS>MOLECULE
ASD01880141
  50   54    0    0    0
SMALL
NO_CHARGES


@<TRIPOS>ATOM
   1 C1            -0.0168     1.3866     0.0097 C.ar    
   2 C2             0.0021    -0.0041     0.0020 C.ar    
   3 C3            -1.1908    -0.7171     0.0091 C.ar    
   4 C4            -2.3920    -0.0608     0.0240 C.ar    
   5 C5            -2.4274     1.3358     0.0323 C.ar    
   6 C6            -1.2195     2.0577     0.0305 C.ar    
   7 C7            -3.8022    -0.6015     0.0346 C.3     
   8 C8            -4.7307     0.6205     0.0505 C.3     
   9 C9            -3.8138     1.8193     0.0485 C.2     
  10 Cl10          -1.2453     3.7935     0.0407 Cl      
  11 Cl11           1.4742     2.2757     0.0002 Cl      
  12 C12           -5.6170     0.6290    -1.1966 C.3     
  13 C13           -6.4770    -0.6462    -1.2408 C.3     
  14 C14           -7.9492    -0.1862    -1.2102 C.3     
  15 C15           -7.9056     1.2634    -1.7541 C.3     
  16 C16           -6.5966     1.8195    -1.1407 C.3     
  17 O17           -4.1620     2.9813     0.0585 O.2     
  18 C18            2.5330    -2.6494    -0.0363 C.ar    
  19 C19            1.1324    -2.0935    -0.0200 C.3     
  20 O20            1.1867    -0.6655    -0.0128 O.3     
  21 C21            3.1847    -2.9099     1.1559 C.ar    
  22 C22            4.4673    -3.4185     1.1476 C.ar    
  23 C23            5.1067    -3.6703    -0.0662 C.ar    
  24 C24            4.4442    -3.4060    -1.2649 C.ar    
  25 C25            3.1597    -2.9023    -1.2433 C.ar    
  26 C26            6.4827    -4.2154    -0.0822 C.2     
  27 N27            7.2203    -4.5093     0.9677 N.2     
  28 N28            8.3646    -4.9620     0.6008 N.2     
  29 N29            8.4446    -4.9916    -0.6854 N.2     
  30 N30            7.2197    -4.5119    -1.1812 N.pl3   
  31 H31           -1.1699    -1.7969     0.0024 H       
  32 H32           -3.9818    -1.1967    -0.8607 H       
  33 H33           -3.9646    -1.2069     0.9263 H       
  34 H34           -5.3449     0.6164     0.9510 H       
  35 H35           -4.9997     0.6943    -2.0926 H       
  36 H36           -6.2777    -1.1994    -2.1586 H       
  37 H37           -6.2630    -1.2711    -0.3738 H       
  38 H38           -8.5597    -0.8177    -1.8556 H       
  39 H39           -8.3318    -0.1993    -0.1896 H       
  40 H40           -7.8535     1.2660    -2.8429 H       
  41 H41           -8.7676     1.8326    -1.4062 H       
  42 H42           -6.7607     2.1302    -0.1089 H       
  43 H43           -6.2200     2.6517    -1.7354 H       
  44 H44            0.5967    -2.4322    -0.9067 H       
  45 H45            0.6136    -2.4418     0.8731 H       
  46 H46            2.6885    -2.7145     2.0951 H       
  47 H47            4.9753    -3.6208     2.0790 H       
  48 H48            4.9341    -3.5989    -2.2078 H       
  49 H49            2.6456    -2.6975    -2.1708 H       
  50 H50            6.9598    -4.4090    -2.1101 H       
@<TRIPOS>BOND
   1    1    2 ar
   2    1   11 1
   3    1    6 ar
   4    2    3 ar
   5    2   20 1
   6    3    4 ar
   7    3   31 1
   8    4    5 ar
   9    4    7 1
  10    5    6 ar
  11    5    9 1
  12    6   10 1
  13    7    8 1
  14    7   32 1
  15    7   33 1
  16    8    9 1
  17    8   12 1
  18    8   34 1
  19    9   17 2
  20   12   13 1
  21   12   16 1
  22   12   35 1
  23   13   14 1
  24   13   36 1
  25   13   37 1
  26   14   15 1
  27   14   38 1
  28   14   39 1
  29   15   16 1
  30   15   40 1
  31   15   41 1
  32   16   42 1
  33   16   43 1
  34   18   19 1
  35   18   21 ar
  36   18   25 ar
  37   19   20 1
  38   19   44 1
  39   19   45 1
  40   21   22 ar
  41   21   46 1
  42   22   23 ar
  43   22   47 1
  44   23   24 ar
  45   23   26 1
  46   24   25 ar
  47   24   48 1
  48   25   49 1
  49   26   27 2
  50   26   30 1
  51   27   28 1
  52   28   29 2
  53   29   30 1
  54   30   50 1

#	End of record

