#	Name: ASD08178372
#	Creating user name:	WinNT
#	Creation time:	15. 06. 2019 21:18

#	Modifying user name:	WinNT
#	Modification time:	15. 06. 2019 21:18

#	Program:	/corina/corina34_cracker 3.40 0067  02.08.2006

@<TRIPOS>MOLECULE
ASD08178372
 101  104    0    0    0
SMALL
NO_CHARGES


@<TRIPOS>ATOM
   1 N1            -0.0168     1.3902     0.0097 N.am    
   2 C2            -0.2173     0.0103     0.0231 C.ar    
   3 C3             0.8683    -0.8557    -0.0926 C.ar    
   4 N4            -1.4399    -0.4832     0.1513 N.ar    
   5 N5            -1.6667    -1.7463     0.1686 N.ar    
   6 C6            -0.7002    -2.6368     0.0602 C.ar    
   7 C7             0.6159    -2.2190    -0.0733 C.ar    
   8 C8            -1.0247    -4.1082     0.0874 C.3     
   9 C9            -1.8115    -4.4335     1.3586 C.3     
  10 C10           -2.1410    -5.9273     1.3862 C.3     
  11 C11           -2.9278    -6.2527     2.6574 C.3     
  12 C12           -3.2523    -7.7241     2.6845 C.2     
  13 N13           -2.5213    -8.6581     3.2049 N.2     
  14 N14           -2.9690    -9.8359     3.1257 N.2     
  15 C15           -4.1130   -10.0077     2.5350 C.2     
  16 S16           -4.6995    -8.4828     2.0200 S.3     
  17 N17           -4.7575   -11.2270     2.3553 N.am    
  18 C18           -4.1929   -12.3617     2.8139 C.2     
  19 C19           -4.8913   -13.6828     2.6192 C.3     
  20 O20           -3.1229   -12.3195     3.3832 O.2     
  21 C21           -4.0568   -14.7853     3.2184 C.ar    
  22 C22           -4.2366   -15.1477     4.5400 C.ar    
  23 C23           -3.4710   -16.1591     5.0898 C.ar    
  24 C24           -2.5260   -16.8081     4.3177 C.ar    
  25 C25           -2.3467   -16.4462     2.9955 C.ar    
  26 C26           -3.1151   -15.4380     2.4446 C.ar    
  27 C27           -1.0750     2.2250     0.0167 C.2     
  28 C28           -0.8601     3.7130     0.1198 C.3     
  29 O29           -2.2000     1.7786    -0.0599 O.2     
  30 C30           -2.1935     4.4152     0.1067 C.ar    
  31 C31           -2.8566     4.6619     1.2945 C.ar    
  32 C32           -2.7508     4.8175    -1.0924 C.ar    
  33 C33           -3.9741     5.4616    -1.1045 C.ar    
  34 C34           -4.6398     5.7029     0.0824 C.ar    
  35 C35           -4.0795     5.3059     1.2824 C.ar    
  36 C36           -3.6664   -16.5536     6.5311 C.3     
  37 N37           -4.6795   -17.6084     6.6156 N.am    
  38 C38           -5.0207   -18.1206     7.8146 C.2     
  39 O39           -5.9518   -19.0900     7.8923 O.3     
  40 O40           -4.4880   -17.7074     8.8256 O.2     
  41 C41           -6.2693   -19.5945     9.2163 C.3     
  42 C42           -4.8054     5.5690     2.5766 C.3     
  43 N43           -5.6756     4.4324     2.8882 N.am    
  44 C44           -6.4270     4.4459     4.0069 C.2     
  45 O45           -7.2268     3.4013     4.2933 O.3     
  46 O46           -6.3827     5.4007     4.7571 O.2     
  47 C47           -8.0076     3.4843     5.5147 C.3     
  48 C48           -6.7938   -18.4501    10.0859 C.3     
  49 C49           -7.3397   -20.6820     9.1045 C.3     
  50 C50           -5.0090   -20.1830     9.8536 C.3     
  51 C51           -8.9307     4.7027     5.4481 C.3     
  52 C52           -8.8482     2.2154     5.6698 C.3     
  53 C53           -7.0666     3.6224     6.7132 C.3     
  54 H54            0.8842     1.7494    -0.0006 H       
  55 H55            1.8745    -0.4770    -0.1944 H       
  56 H56            1.4199    -2.9345    -0.1636 H       
  57 H57           -1.6240    -4.3643    -0.7864 H       
  58 H58           -0.0997    -4.6845     0.0751 H       
  59 H59           -1.2123    -4.1774     2.2323 H       
  60 H60           -2.7366    -3.8571     1.3708 H       
  61 H61           -2.7402    -6.1835     0.5124 H       
  62 H62           -1.2159    -6.5037     1.3739 H       
  63 H63           -2.3286    -5.9966     3.5311 H       
  64 H64           -3.8529    -5.6763     2.6696 H       
  65 H65           -5.6133   -11.2607     1.9000 H       
  66 H66           -5.8640   -13.6554     3.1104 H       
  67 H67           -5.0274   -13.8683     1.5537 H       
  68 H68           -4.9750   -14.6406     5.1433 H       
  69 H69           -1.9273   -17.5977     4.7474 H       
  70 H70           -1.6080   -16.9530     2.3922 H       
  71 H71           -2.9751   -15.1553     1.4117 H       
  72 H72           -0.3385     3.9413     1.0493 H       
  73 H73           -0.2620     4.0532    -0.7255 H       
  74 H74           -2.4192     4.3512     2.2317 H       
  75 H75           -2.2306     4.6289    -2.0199 H       
  76 H76           -4.4093     5.7766    -2.0415 H       
  77 H77           -5.5952     6.2064     0.0730 H       
  78 H78           -2.7244   -16.9211     6.9381 H       
  79 H79           -3.9959   -15.6866     7.1036 H       
  80 H80           -5.1048   -17.9382     5.8085 H       
  81 H81           -4.0801     5.7021     3.3793 H       
  82 H82           -5.4081     6.4718     2.4780 H       
  83 H83           -5.7109     3.6701     2.2893 H       
  84 H84           -7.6917   -18.0308     9.6319 H       
  85 H85           -7.0321   -18.8288    11.0798 H       
  86 H86           -6.0312   -17.6754    10.1655 H       
  87 H87           -6.9661   -21.4973     8.4850 H       
  88 H88           -7.5781   -21.0607    10.0984 H       
  89 H89           -8.2376   -20.2627     8.6505 H       
  90 H90           -4.2464   -19.4083     9.9332 H       
  91 H91           -5.2473   -20.5617    10.8475 H       
  92 H92           -4.6353   -20.9983     9.2340 H       
  93 H93           -9.6010     4.6043     4.5942 H       
  94 H94           -9.5168     4.7650     6.3649 H       
  95 H95           -8.3318     5.6067     5.3376 H       
  96 H96           -8.1906     1.3474     5.7173 H       
  97 H97           -9.4344     2.2777     6.5867 H       
  98 H98           -9.5186     2.1171     4.8160 H       
  99 H99           -6.4677     4.5263     6.6027 H       
 100 H100          -7.6527     3.6847     7.6301 H       
 101 H101          -6.4089     2.7544     6.7607 H       
@<TRIPOS>BOND
   1    1    2 1
   2    1   27 am
   3    1   54 1
   4    2    3 ar
   5    2    4 ar
   6    3    7 ar
   7    3   55 1
   8    4    5 ar
   9    5    6 ar
  10    6    7 ar
  11    6    8 1
  12    7   56 1
  13    8    9 1
  14    8   57 1
  15    8   58 1
  16    9   10 1
  17    9   59 1
  18    9   60 1
  19   10   11 1
  20   10   61 1
  21   10   62 1
  22   11   12 1
  23   11   63 1
  24   11   64 1
  25   12   13 2
  26   12   16 1
  27   13   14 1
  28   14   15 2
  29   15   16 1
  30   15   17 1
  31   17   18 am
  32   17   65 1
  33   18   19 1
  34   18   20 2
  35   19   21 1
  36   19   66 1
  37   19   67 1
  38   21   22 ar
  39   21   26 ar
  40   22   23 ar
  41   22   68 1
  42   23   24 ar
  43   23   36 1
  44   24   25 ar
  45   24   69 1
  46   25   26 ar
  47   25   70 1
  48   26   71 1
  49   27   28 1
  50   27   29 2
  51   28   30 1
  52   28   72 1
  53   28   73 1
  54   30   31 ar
  55   30   32 ar
  56   31   35 ar
  57   31   74 1
  58   32   33 ar
  59   32   75 1
  60   33   34 ar
  61   33   76 1
  62   34   35 ar
  63   34   77 1
  64   35   42 1
  65   36   37 1
  66   36   78 1
  67   36   79 1
  68   37   38 am
  69   37   80 1
  70   38   39 1
  71   38   40 2
  72   39   41 1
  73   41   48 1
  74   41   49 1
  75   41   50 1
  76   42   43 1
  77   42   81 1
  78   42   82 1
  79   43   44 am
  80   43   83 1
  81   44   45 1
  82   44   46 2
  83   45   47 1
  84   47   51 1
  85   47   52 1
  86   47   53 1
  87   48   84 1
  88   48   85 1
  89   48   86 1
  90   49   87 1
  91   49   88 1
  92   49   89 1
  93   50   90 1
  94   50   91 1
  95   50   92 1
  96   51   93 1
  97   51   94 1
  98   51   95 1
  99   52   96 1
 100   52   97 1
 101   52   98 1
 102   53   99 1
 103   53  100 1
 104   53  101 1

#	End of record

