#	Name: ASD00170938
#	Creating user name:	WinNT
#	Creation time:	15. 06. 2019 18:32

#	Modifying user name:	WinNT
#	Modification time:	15. 06. 2019 18:32

#	Program:	/corina/corina34_cracker 3.40 0067  02.08.2006

@<TRIPOS>MOLECULE
ASD00170938
  51   55    0    0    0
SMALL
NO_CHARGES


@<TRIPOS>ATOM
   1 C1            -2.7056    -1.5668    -4.4735 C.ar    
   2 C2            -1.8236    -1.8673    -3.4486 C.ar    
   3 C3            -2.1503    -1.5651    -2.1434 C.ar    
   4 C4            -3.3727    -0.9552    -1.8560 C.ar    
   5 C5            -4.2576    -0.6548    -2.8932 C.ar    
   6 C6            -3.9177    -0.9570    -4.1950 C.ar    
   7 C7            -3.7291    -0.6290    -0.4584 C.2     
   8 O8            -2.9977    -0.9727     0.4526 O.2     
   9 C9            -4.9602     0.1063    -0.1701 C.2     
  10 C10           -6.2648    -0.5156    -0.0829 C.2     
  11 C11           -7.2349     0.3434     0.1883 C.2     
  12 S12           -6.6024     1.9715     0.3532 S.3     
  13 C13           -5.0034     1.4630     0.0535 C.2     
  14 N14           -3.9048     2.2981     0.0312 N.pl3   
  15 C15           -6.4950    -1.9916    -0.2810 C.3     
  16 N16           -6.3154    -2.6912     0.9982 N.3     
  17 Cl17          -2.2873    -1.9497    -6.1143 Cl      
  18 C18           -6.6921    -4.1151     0.8805 C.3     
  19 C19           -6.5794    -4.7212     2.2768 C.3     
  20 N20           -5.1482    -4.6150     2.6631 N.3     
  21 C21           -4.7687    -3.2349     2.8539 C.3     
  22 C22           -4.9542    -2.5072     1.5111 C.3     
  23 C23           -6.7615    -6.2523     2.2968 C.3     
  24 C24           -5.7981    -6.6519     3.3919 C.ar    
  25 C25           -4.8771    -5.5973     3.5673 C.ar    
  26 C26           -5.7419    -7.8031     4.1456 C.ar    
  27 C27           -4.7428    -7.8852     5.1099 C.ar    
  28 C28           -3.8456    -6.8533     5.3032 C.ar    
  29 C29           -3.8872    -5.6942     4.5457 C.ar    
  30 Cl30          -4.6216    -9.3127     6.0903 Cl      
  31 H31           -0.8784    -2.3394    -3.6722 H       
  32 H32           -1.4619    -1.8001    -1.3451 H       
  33 H33           -5.2049    -0.1834    -2.6768 H       
  34 H34           -4.6014    -0.7251    -4.9983 H       
  35 H35           -8.2764     0.0775     0.2939 H       
  36 H36           -4.0025     3.2345     0.2646 H       
  37 H37           -3.0349     1.9486    -0.2180 H       
  38 H38           -7.5091    -2.1555    -0.6454 H       
  39 H39           -5.7807    -2.3763    -1.0089 H       
  40 H40           -7.7171    -4.2002     0.5195 H       
  41 H41           -6.0125    -4.6247     0.1976 H       
  42 H42           -7.2311    -4.2136     2.9879 H       
  43 H43           -5.4049    -2.7784     3.6122 H       
  44 H44           -3.7251    -3.1783     3.1635 H       
  45 H45           -4.2422    -2.9041     0.7874 H       
  46 H46           -4.7652    -1.4430     1.6514 H       
  47 H47           -7.7849    -6.5215     2.5582 H       
  48 H48           -6.4741    -6.6933     1.3423 H       
  49 H49           -6.4449    -8.6089     3.9944 H       
  50 H50           -3.0889    -6.9530     6.0672 H       
  51 H51           -3.1799    -4.8942     4.7075 H       
@<TRIPOS>BOND
   1    1    2 ar
   2    1   17 1
   3    1    6 ar
   4    2    3 ar
   5    2   31 1
   6    3    4 ar
   7    3   32 1
   8    4    5 ar
   9    4    7 1
  10    5    6 ar
  11    5   33 1
  12    6   34 1
  13    7    8 2
  14    7    9 1
  15    9   10 1
  16    9   13 2
  17   10   11 2
  18   10   15 1
  19   11   12 1
  20   11   35 1
  21   12   13 1
  22   13   14 1
  23   14   36 1
  24   14   37 1
  25   15   16 1
  26   15   38 1
  27   15   39 1
  28   16   18 1
  29   16   22 1
  30   18   19 1
  31   18   40 1
  32   18   41 1
  33   19   20 1
  34   19   23 1
  35   19   42 1
  36   20   21 1
  37   20   25 1
  38   21   22 1
  39   21   43 1
  40   21   44 1
  41   22   45 1
  42   22   46 1
  43   23   24 1
  44   23   47 1
  45   23   48 1
  46   24   25 ar
  47   24   26 ar
  48   25   29 ar
  49   26   27 ar
  50   26   49 1
  51   27   28 ar
  52   27   30 1
  53   28   29 ar
  54   28   50 1
  55   29   51 1

#	End of record

