#	Name: ASD01917848
#	Creating user name:	WinNT
#	Creation time:	15. 06. 2019 20:10

#	Modifying user name:	WinNT
#	Modification time:	15. 06. 2019 20:10

#	Program:	/corina/corina34_cracker 3.40 0067  02.08.2006

@<TRIPOS>MOLECULE
ASD01917848
  43   46    0    0    0
SMALL
NO_CHARGES


@<TRIPOS>ATOM
   1 C1            -0.0150     1.3204    -0.0009 C.2     
   2 C2            -0.0104    -0.0257     0.0078 C.2     
   3 C3            -1.2834    -0.8578     0.0241 C.3     
   4 C4            -2.4466     0.0146     0.5019 C.3     
   5 N5            -2.4116     1.2983    -0.2150 N.am    
   6 C6            -1.2561     2.1829     0.0162 C.3     
   7 C7            -3.4039     1.6536    -1.0549 C.2     
   8 O8            -4.2925     0.8656    -1.3137 O.2     
   9 S9             1.6483     1.8891    -0.0275 S.3     
  10 C10            2.2081     0.2742    -0.0200 C.2     
  11 N11            1.2120    -0.5398    -0.0009 N.2     
  12 C12            3.6580    -0.1366    -0.0341 C.3     
  13 O13            4.0999    -0.2779    -1.3857 O.3     
  14 C14            5.3944    -0.6468    -1.5765 C.ar    
  15 C15            5.8895    -0.8024    -2.8628 C.ar    
  16 C16            7.2051    -1.1773    -3.0552 C.ar    
  17 C17            8.0292    -1.3982    -1.9648 C.ar    
  18 C18            7.5363    -1.2432    -0.6803 C.ar    
  19 C19            6.2228    -0.8624    -0.4850 C.ar    
  20 C20           -3.4117     3.0019    -1.6616 C.ar    
  21 C21           -2.9456     4.0990    -0.9364 C.ar    
  22 C22           -2.9558     5.3566    -1.5097 C.ar    
  23 C23           -3.4275     5.5275    -2.8011 C.ar    
  24 C24           -3.8909     4.4424    -3.5235 C.ar    
  25 C25           -3.8800     3.1815    -2.9644 C.ar    
  26 F26           -2.5056     6.4208    -0.8097 F       
  27 F27            9.3154    -1.7657    -2.1543 F       
  28 H28           -1.4919    -1.2246    -0.9810 H       
  29 H29           -1.1584    -1.7018     0.7024 H       
  30 H30           -3.3899    -0.4916     0.2970 H       
  31 H31           -2.3525     0.1928     1.5731 H       
  32 H32           -1.3539     2.6746     0.9840 H       
  33 H33           -1.1974     2.9299    -0.7754 H       
  34 H34            4.2563     0.6250     0.4660 H       
  35 H35            3.7713    -1.0875     0.4865 H       
  36 H36            5.2467    -0.6309    -3.7135 H       
  37 H37            7.5909    -1.2986    -4.0566 H       
  38 H38            8.1801    -1.4162     0.1695 H       
  39 H39            5.8386    -0.7413     0.5170 H       
  40 H40           -2.5782     3.9660     0.0705 H       
  41 H41           -3.4338     6.5118    -3.2456 H       
  42 H42           -4.2577     4.5822    -4.5297 H       
  43 H43           -4.2423     2.3358    -3.5301 H       
@<TRIPOS>BOND
   1    1    2 2
   2    1    9 1
   3    1    6 1
   4    2    3 1
   5    2   11 1
   6    3    4 1
   7    3   28 1
   8    3   29 1
   9    4    5 1
  10    4   30 1
  11    4   31 1
  12    5    6 1
  13    5    7 am
  14    6   32 1
  15    6   33 1
  16    7    8 2
  17    7   20 1
  18    9   10 1
  19   10   11 2
  20   10   12 1
  21   12   13 1
  22   12   34 1
  23   12   35 1
  24   13   14 1
  25   14   15 ar
  26   14   19 ar
  27   15   16 ar
  28   15   36 1
  29   16   17 ar
  30   16   37 1
  31   17   18 ar
  32   17   27 1
  33   18   19 ar
  34   18   38 1
  35   19   39 1
  36   20   21 ar
  37   20   25 ar
  38   21   22 ar
  39   21   40 1
  40   22   23 ar
  41   22   26 1
  42   23   24 ar
  43   23   41 1
  44   24   25 ar
  45   24   42 1
  46   25   43 1

#	End of record

