#	Name: ASD01910103
#	Creating user name:	WinNT
#	Creation time:	15. 06. 2019 19:55

#	Modifying user name:	WinNT
#	Modification time:	15. 06. 2019 19:55

#	Program:	/corina/corina34_cracker 3.40 0067  02.08.2006

@<TRIPOS>MOLECULE
ASD01910103
  41   44    0    0    0
SMALL
NO_CHARGES


@<TRIPOS>ATOM
   1 C1             0.1133     0.5053     0.4070 C.ar    
   2 C2             0.3431    -0.8566     0.4533 C.ar    
   3 C3             1.6358    -1.3538     0.3893 C.ar    
   4 C4             2.7036    -0.4784     0.2777 C.ar    
   5 C5             2.4691     0.9110     0.2300 C.ar    
   6 C6             1.1722     1.3934     0.2954 C.ar    
   7 C7             4.1695    -0.6444     0.1870 C.2     
   8 N8             4.7338     0.5732     0.0936 N.am    
   9 C9             3.8006     1.5419     0.1120 C.2     
  10 C10            6.1752     0.8128    -0.0133 C.3     
  11 C11            6.6007     0.6825    -1.4531 C.ar    
  12 C12            6.4504     1.7553    -2.3219 C.ar    
  13 C13            6.8437     1.6317    -3.6485 C.ar    
  14 C14            7.3827     0.4433    -4.0997 C.ar    
  15 C15            7.5313    -0.6244    -3.2315 C.ar    
  16 C16            7.1457    -0.5022    -1.9083 C.ar    
  17 N17            5.9037     2.9579    -1.8623 N.am    
  18 C18            5.3573     3.8270    -2.7356 C.2     
  19 C19            4.8844     5.1499    -2.2661 C.ar    
  20 N20            4.9971     5.4833    -0.9857 N.ar    
  21 N21            4.5997     6.6198    -0.5408 N.ar    
  22 C22            4.0528     7.5330    -1.3243 C.ar    
  23 C23            3.8911     7.2804    -2.6772 C.ar    
  24 C24            4.3226     6.0562    -3.1693 C.ar    
  25 O25            5.2526     3.5253    -3.9082 O.2     
  26 O26            4.0161     2.7352     0.0434 O.2     
  27 O27            4.7650    -1.7028     0.1959 O.2     
  28 Cl28           8.2089    -2.1174    -3.8022 Cl      
  29 H29           -0.8985     0.8802     0.4536 H       
  30 H30           -0.4900    -1.5383     0.5402 H       
  31 H31            1.8095    -2.4191     0.4266 H       
  32 H32            0.9866     2.4567     0.2590 H       
  33 H33            6.4041     1.8169     0.3438 H       
  34 H34            6.7109     0.0811     0.5916 H       
  35 H35            6.7276     2.4644    -4.3264 H       
  36 H36            7.6883     0.3466    -5.1310 H       
  37 H37            7.2628    -1.3369    -1.2329 H       
  38 H38            5.9178     3.1664    -0.9151 H       
  39 H39            3.7313     8.4769    -0.9096 H       
  40 H40            3.4461     8.0162    -3.3306 H       
  41 H41            4.2204     5.8090    -4.2156 H       
@<TRIPOS>BOND
   1    1    2 ar
   2    1    6 ar
   3    1   29 1
   4    2    3 ar
   5    2   30 1
   6    3    4 ar
   7    3   31 1
   8    4    5 ar
   9    4    7 1
  10    5    6 ar
  11    5    9 1
  12    6   32 1
  13    7    8 am
  14    7   27 2
  15    8    9 am
  16    8   10 1
  17    9   26 2
  18   10   11 1
  19   10   33 1
  20   10   34 1
  21   11   12 ar
  22   11   16 ar
  23   12   13 ar
  24   12   17 1
  25   13   14 ar
  26   13   35 1
  27   14   15 ar
  28   14   36 1
  29   15   16 ar
  30   15   28 1
  31   16   37 1
  32   17   18 am
  33   17   38 1
  34   18   19 1
  35   18   25 2
  36   19   20 ar
  37   19   24 ar
  38   20   21 ar
  39   21   22 ar
  40   22   23 ar
  41   22   39 1
  42   23   24 ar
  43   23   40 1
  44   24   41 1

#	End of record

