#	Name: ASD08070243
#	Creating user name:	WinNT
#	Creation time:	15. 06. 2019 21:14

#	Modifying user name:	WinNT
#	Modification time:	15. 06. 2019 21:14

#	Program:	/corina/corina34_cracker 3.40 0067  02.08.2006

@<TRIPOS>MOLECULE
ASD08070243
  32   34    0    0    0
SMALL
NO_CHARGES


@<TRIPOS>ATOM
   1 N1            -0.0205     1.3455    -0.0321 N.am    
   2 C2             0.0004    -0.0021    -0.0230 C.2     
   3 O3             1.0625    -0.5938    -0.0441 O.2     
   4 N4            -1.1558    -0.6938     0.0094 N.am    
   5 C5            -1.1402    -2.0910    -0.1041 C.ar    
   6 C6            -2.0831    -2.8554     0.5745 C.ar    
   7 C7            -2.0651    -4.2332     0.4606 C.ar    
   8 C8             1.1433     2.2370    -0.0661 C.3     
   9 C9            -0.1875    -2.7129    -0.8981 C.ar    
  10 C10           -0.1735    -4.0904    -1.0088 C.ar    
  11 C11           -1.1089    -4.8508    -0.3284 C.ar    
  12 F12           -3.0153    -2.2525     1.3444 F       
  13 F13           -1.0924    -6.1972    -0.4383 F       
  14 C14            0.6339     3.6561    -0.0640 C.ar    
  15 C15           -0.7462     3.6349    -0.0310 C.ar    
  16 C16           -1.2115     2.2008    -0.0162 C.3     
  17 C17            1.3058     4.8664    -0.0885 C.ar    
  18 C18            0.5976     6.0524    -0.0796 C.ar    
  19 C19           -0.7844     6.0312    -0.0465 C.ar    
  20 C20           -1.4555     4.8239    -0.0229 C.ar    
  21 H21           -1.9988    -0.2248     0.1112 H       
  22 H22           -2.7966    -4.8280     0.9873 H       
  23 H23            1.7651     2.0664     0.8127 H       
  24 H24            1.7227     2.0538    -0.9710 H       
  25 H25            0.5426    -2.1208    -1.4297 H       
  26 H26            0.5681    -4.5742    -1.6272 H       
  27 H27           -1.8277     2.0032    -0.8934 H       
  28 H28           -1.7851     2.0078     0.8904 H       
  29 H29            2.3854     4.8832    -0.1144 H       
  30 H30            1.1231     6.9957    -0.0981 H       
  31 H31           -1.3391     6.9578    -0.0396 H       
  32 H32           -2.5351     4.8075     0.0029 H       
@<TRIPOS>BOND
   1    1    2 am
   2    1    8 1
   3    1   16 1
   4    2    3 2
   5    2    4 am
   6    4    5 1
   7    4   21 1
   8    5    6 ar
   9    5    9 ar
  10    6    7 ar
  11    6   12 1
  12    7   11 ar
  13    7   22 1
  14    8   14 1
  15    8   23 1
  16    8   24 1
  17    9   10 ar
  18    9   25 1
  19   10   11 ar
  20   10   26 1
  21   11   13 1
  22   14   15 ar
  23   14   17 ar
  24   15   16 1
  25   15   20 ar
  26   16   27 1
  27   16   28 1
  28   17   18 ar
  29   17   29 1
  30   18   19 ar
  31   18   30 1
  32   19   20 ar
  33   19   31 1
  34   20   32 1

#	End of record

