#	Name: ASD01140336
#	Creating user name:	WinNT
#	Creation time:	15. 06. 2019 19:00

#	Modifying user name:	WinNT
#	Modification time:	15. 06. 2019 19:00

#	Program:	/corina/corina34_cracker 3.40 0067  02.08.2006

@<TRIPOS>MOLECULE
ASD01140336
  41   43    0    0    0
SMALL
NO_CHARGES


@<TRIPOS>ATOM
   1 C1            -0.1021     1.5582    -0.1846 C.2     
   2 C2            -0.2082     0.2038    -0.1176 C.2     
   3 C3             0.9480    -0.5779     0.0415 C.2     
   4 C4             2.1601     0.0090     0.1279 C.2     
   5 C5             1.1712     2.1569    -0.0928 C.2     
   6 N6             1.5623     3.4222    -0.1265 N.2     
   7 N7             2.2816     1.3673     0.0627 N.pl3   
   8 C8             3.3646     2.1992     0.1223 C.2     
   9 C9             2.8974     3.4732     0.0027 C.2     
  10 C10            3.7231     4.7063     0.0131 C.ar    
  11 C11            3.2939     5.8287     0.7185 C.ar    
  12 C12            4.0647     6.9731     0.7255 C.ar    
  13 C13            5.2639     7.0073     0.0325 C.ar    
  14 C14            5.6944     5.8936    -0.6702 C.ar    
  15 C15            4.9326     4.7432    -0.6778 C.ar    
  16 C16            4.8040     1.7851     0.2886 C.3     
  17 C17            5.3844     1.4342    -1.0572 C.2     
  18 N18            6.6675     1.0332    -1.1539 N.am    
  19 O19            4.6969     1.5127    -2.0532 O.2     
  20 C20            7.2317     0.6921    -2.4621 C.3     
  21 C21            7.4979     0.9383     0.0493 C.3     
  22 C22            0.8343    -2.0787     0.1167 C.3     
  23 F23            0.5561    -2.4599     1.4336 F       
  24 F24           -0.1989    -2.5106    -0.7220 F       
  25 F25            2.0400    -2.6588    -0.2920 F       
  26 F26            6.0153     8.1300     0.0416 F       
  27 H27           -0.9839     2.1687    -0.3113 H       
  28 H28           -1.1771    -0.2684    -0.1861 H       
  29 H29            3.0425    -0.6016     0.2502 H       
  30 H30            2.3591     5.8031     1.2588 H       
  31 H31            3.7326     7.8436     1.2717 H       
  32 H32            6.6299     5.9245    -1.2091 H       
  33 H33            5.2712     3.8740    -1.2222 H       
  34 H34            5.3705     2.6075     0.7254 H       
  35 H35            4.8587     0.9169     0.9454 H       
  36 H36            7.6671     1.5835    -2.9136 H       
  37 H37            8.0043    -0.0667    -2.3379 H       
  38 H38            6.4434     0.3056    -3.1082 H       
  39 H39            7.0513     0.2269     0.7439 H       
  40 H40            8.4972     0.6001    -0.2247 H       
  41 H41            7.5631     1.9174     0.5239 H       
@<TRIPOS>BOND
   1    1    2 2
   2    1    5 1
   3    1   27 1
   4    2    3 1
   5    2   28 1
   6    3    4 2
   7    3   22 1
   8    4    7 1
   9    4   29 1
  10    5    7 1
  11    5    6 2
  12    6    9 1
  13    7    8 1
  14    8    9 2
  15    8   16 1
  16    9   10 1
  17   10   11 ar
  18   10   15 ar
  19   11   12 ar
  20   11   30 1
  21   12   13 ar
  22   12   31 1
  23   13   14 ar
  24   13   26 1
  25   14   15 ar
  26   14   32 1
  27   15   33 1
  28   16   17 1
  29   16   34 1
  30   16   35 1
  31   17   18 am
  32   17   19 2
  33   18   20 1
  34   18   21 1
  35   20   36 1
  36   20   37 1
  37   20   38 1
  38   21   39 1
  39   21   40 1
  40   21   41 1
  41   22   23 1
  42   22   24 1
  43   22   25 1

#	End of record

