#	Name: ASD03091313
#	Creating user name:	WinNT
#	Creation time:	15. 06. 2019 20:30

#	Modifying user name:	WinNT
#	Modification time:	15. 06. 2019 20:30

#	Program:	/corina/corina34_cracker 3.40 0067  02.08.2006

@<TRIPOS>MOLECULE
ASD03091313
  64   68    0    0    0
SMALL
NO_CHARGES


@<TRIPOS>ATOM
   1 N1             0.4865     1.0998     0.1224 N.2     
   2 C2             0.2439    -0.1804     0.0063 C.2     
   3 N3             1.2196    -1.1051    -0.2525 N.am    
   4 C4             2.5077    -0.7176    -0.4023 C.2     
   5 C5             2.8038     0.7172    -0.2762 C.ar    
   6 C6             4.0978     1.2144    -0.4143 C.ar    
   7 C7             4.3194     2.5751    -0.2862 C.ar    
   8 C8             3.2587     3.4416    -0.0210 C.ar    
   9 C9             1.9854     2.9691     0.1168 C.ar    
  10 C10            1.7324     1.5994    -0.0075 C.ar    
  11 O11            3.3880    -1.5264    -0.6322 O.2     
  12 C12            0.8675    -2.5225    -0.3674 C.3     
  13 C13            0.6496    -2.8761    -1.8400 C.3     
  14 C14            0.2177    -4.3393    -1.9547 C.3     
  15 C15           -0.4401    -1.9753    -2.4249 C.3     
  16 C16            1.9533    -2.6671    -2.6130 C.3     
  17 O17            0.0142    -4.6696    -3.3300 O.3     
  18 C18           -1.1478    -0.6501     0.1620 C.ar    
  19 C19           -1.4682    -1.5816     1.1547 C.ar    
  20 C20           -2.7732    -2.0159     1.2935 C.ar    
  21 C21           -3.7588    -1.5315     0.4533 C.ar    
  22 C22           -3.4474    -0.6096    -0.5308 C.ar    
  23 C23           -2.1509    -0.1622    -0.6774 C.ar    
  24 F24           -0.5053    -2.0558     1.9752 F       
  25 N25            8.2728     3.4610    -1.6716 N.3     
  26 C26            8.0217     2.4977    -0.5887 C.3     
  27 C27            6.5845     2.0027    -0.6326 C.3     
  28 N28            5.6141     3.0838    -0.4230 N.3     
  29 C29            5.6829     4.0612    -1.5183 C.3     
  30 C30            6.6097     5.2093    -1.1477 C.3     
  31 C31            8.0771     4.8323    -1.1797 C.3     
  32 C32            7.5919     3.2090    -2.9235 C.3     
  33 C33            6.0837     3.3485    -2.7969 C.3     
  34 H34            4.9201     0.5449    -0.6189 H       
  35 H35            3.4475     4.5004     0.0769 H       
  36 H36            1.1746     3.6522     0.3224 H       
  37 H37            1.6760    -3.1317     0.0367 H       
  38 H38           -0.0477    -2.7160     0.1920 H       
  39 H39            0.9940    -4.9810    -1.5379 H       
  40 H40           -0.7111    -4.4882    -1.4040 H       
  41 H41           -0.1237    -0.9342    -2.3614 H       
  42 H42           -0.6093    -2.2406    -3.4685 H       
  43 H43           -1.3635    -2.1095    -1.8616 H       
  44 H44            2.7297    -3.3088    -2.1963 H       
  45 H45            1.7981    -2.9190    -3.6621 H       
  46 H46            2.2611    -1.6246    -2.5313 H       
  47 H47           -0.2619    -5.5844    -3.4782 H       
  48 H48           -3.0233    -2.7352     2.0593 H       
  49 H49           -4.7767    -1.8745     0.5654 H       
  50 H50           -4.2227    -0.2362    -1.1833 H       
  51 H51           -1.9114     0.5606    -1.4432 H       
  52 H52            8.6972     1.6494    -0.6991 H       
  53 H53            8.2062     2.9803     0.3710 H       
  54 H54            6.3984     1.5446    -1.6039 H       
  55 H55            6.4468     1.2494     0.1431 H       
  56 H56            4.6833     4.4685    -1.6699 H       
  57 H57            6.4446     6.0307    -1.8450 H       
  58 H58            6.3585     5.5511    -0.1436 H       
  59 H59            8.4868     4.9110    -0.1727 H       
  60 H60            8.6080     5.5241    -1.8336 H       
  61 H61            7.9510     3.9174    -3.6701 H       
  62 H62            7.8267     2.1979    -3.2563 H       
  63 H63            5.6342     2.3555    -2.8049 H       
  64 H64            5.7073     3.9129    -3.6501 H       
@<TRIPOS>BOND
   1    1    2 2
   2    1   10 1
   3    2    3 1
   4    2   18 1
   5    3    4 am
   6    3   12 1
   7    4    5 1
   8    4   11 2
   9    5    6 ar
  10    5   10 ar
  11    6    7 ar
  12    6   34 1
  13    7    8 ar
  14    7   28 1
  15    8    9 ar
  16    8   35 1
  17    9   10 ar
  18    9   36 1
  19   12   13 1
  20   12   37 1
  21   12   38 1
  22   13   14 1
  23   13   15 1
  24   13   16 1
  25   14   17 1
  26   14   39 1
  27   14   40 1
  28   15   41 1
  29   15   42 1
  30   15   43 1
  31   16   44 1
  32   16   45 1
  33   16   46 1
  34   17   47 1
  35   18   19 ar
  36   18   23 ar
  37   19   20 ar
  38   19   24 1
  39   20   21 ar
  40   20   48 1
  41   21   22 ar
  42   21   49 1
  43   22   23 ar
  44   22   50 1
  45   23   51 1
  46   25   26 1
  47   25   31 1
  48   25   32 1
  49   26   27 1
  50   26   52 1
  51   26   53 1
  52   27   28 1
  53   27   54 1
  54   27   55 1
  55   28   29 1
  56   29   30 1
  57   29   33 1
  58   29   56 1
  59   30   31 1
  60   30   57 1
  61   30   58 1
  62   31   59 1
  63   31   60 1
  64   32   33 1
  65   32   61 1
  66   32   62 1
  67   33   63 1
  68   33   64 1

#	End of record

