#	Name: ASD05170121
#	Creating user name:	WinNT
#	Creation time:	15. 06. 2019 20:57

#	Modifying user name:	WinNT
#	Modification time:	15. 06. 2019 20:57

#	Program:	/corina/corina34_cracker 3.40 0067  02.08.2006

@<TRIPOS>MOLECULE
ASD05170121
  42   45    0    0    0
SMALL
NO_CHARGES


@<TRIPOS>ATOM
   1 C1            -0.0167     1.3795     0.0096 C.ar    
   2 C2             0.0021    -0.0041     0.0020 C.ar    
   3 C3             1.2320    -0.6497    -0.0132 C.ar    
   4 C4             2.3901     0.1036    -0.0202 C.ar    
   5 N5             2.3390     1.4222    -0.0126 N.ar    
   6 C6             1.1874     2.0721     0.0018 C.ar    
   7 O7             1.1819     3.4290     0.0092 O.3     
   8 C8             2.4525     4.0830     0.0006 C.3     
   9 C9             2.2490     5.5762     0.0105 C.2     
  10 C10            1.0148     6.2398     0.0315 C.2     
  11 N11            3.1966     6.4846     0.0068 N.2     
  12 C12            1.3272     7.5694     0.0310 C.2     
  13 C13            0.4818     8.7728     0.0521 C.2     
  14 N14            2.7018     7.6600     0.0266 N.pl3   
  15 C15            3.3770     8.9629     0.0605 C.3     
  16 C16            2.4967    10.0047    -0.6282 C.3     
  17 N17            1.1092     9.9526    -0.1732 N.am    
  18 O18           -0.7152     8.7123     0.2601 O.2     
  19 C19            3.6164     9.3766     1.5139 C.3     
  20 Cl20           1.3129    -2.3838    -0.0227 Cl      
  21 C21            0.4140    11.1488     0.0399 C.ar    
  22 C22            0.4405    11.7672     1.2817 C.ar    
  23 N23           -0.2130    12.8941     1.4864 N.ar    
  24 C24           -0.9121    13.4767     0.5315 C.ar    
  25 C25           -0.9873    12.9235    -0.7323 C.ar    
  26 C26           -0.3112    11.7403    -0.9949 C.ar    
  27 F27           -0.3583    11.1730    -2.2201 F       
  28 H28           -0.9552     1.9140     0.0170 H       
  29 H29           -0.9183    -0.5690     0.0081 H       
  30 H30            3.3492    -0.3929    -0.0317 H       
  31 H31            3.0191     3.7876     0.8836 H       
  32 H32            3.0021     3.7972    -0.8962 H       
  33 H33            0.0303     5.7960     0.0451 H       
  34 H34            4.3319     8.8916    -0.4603 H       
  35 H35            2.8978    10.9970    -0.4219 H       
  36 H36            2.5231     9.8327    -1.7042 H       
  37 H37            4.2412     8.6310     2.0058 H       
  38 H38            4.1179    10.3441     1.5384 H       
  39 H39            2.6608     9.4495     2.0331 H       
  40 H40            1.0019    11.3208     2.0891 H       
  41 H41           -1.4333    14.3992     0.7406 H       
  42 H42           -1.5625    13.4079    -1.5075 H       
@<TRIPOS>BOND
   1    1    2 ar
   2    1    6 ar
   3    1   28 1
   4    2    3 ar
   5    2   29 1
   6    3    4 ar
   7    3   20 1
   8    4    5 ar
   9    4   30 1
  10    5    6 ar
  11    6    7 1
  12    7    8 1
  13    8    9 1
  14    8   31 1
  15    8   32 1
  16    9   11 2
  17    9   10 1
  18   10   12 2
  19   10   33 1
  20   11   14 1
  21   12   14 1
  22   12   13 1
  23   13   17 am
  24   13   18 2
  25   14   15 1
  26   15   16 1
  27   15   19 1
  28   15   34 1
  29   16   17 1
  30   16   35 1
  31   16   36 1
  32   17   21 1
  33   19   37 1
  34   19   38 1
  35   19   39 1
  36   21   22 ar
  37   21   26 ar
  38   22   23 ar
  39   22   40 1
  40   23   24 ar
  41   24   25 ar
  42   24   41 1
  43   25   26 ar
  44   25   42 1
  45   26   27 1

#	End of record

