#	Name: ASD04880006
#	Creating user name:	WinNT
#	Creation time:	15. 06. 2019 20:52

#	Modifying user name:	WinNT
#	Modification time:	15. 06. 2019 20:52

#	Program:	/corina/corina34_cracker 3.40 0067  02.08.2006

@<TRIPOS>MOLECULE
ASD04880006
  33   35    0    0    0
SMALL
NO_CHARGES


@<TRIPOS>ATOM
   1 C1            -0.0144     1.2117     0.0087 C.2     
   2 O2             0.0478    -0.0024     0.0311 O.2     
   3 N3             1.1160     1.9435    -0.0478 N.am    
   4 N4             1.1788     3.3282    -0.1901 N.2     
   5 C5             2.3770     3.8006    -0.2186 C.2     
   6 C6             3.3698     2.6681    -0.0845 C.3     
   7 C7             2.4853     1.4113     0.0370 C.3     
   8 C8             2.7264     5.2263    -0.3602 C.ar    
   9 C9             1.7193     6.1872    -0.4763 C.ar    
  10 C10            2.0544     7.5208    -0.6081 C.ar    
  11 C11            3.3862     7.9047    -0.6257 C.ar    
  12 C12            4.3870     6.9568    -0.5116 C.ar    
  13 C13            4.0659     5.6222    -0.3730 C.ar    
  14 F14            1.0825     8.4525    -0.7206 F       
  15 C15           -1.3298     1.8848     0.0373 C.ar    
  16 C16           -1.4039     3.2738     0.1560 C.ar    
  17 C17           -2.6370     3.8964     0.1816 C.ar    
  18 C18           -3.7975     3.1441     0.0901 C.ar    
  19 C19           -3.7287     1.7678    -0.0277 C.ar    
  20 C20           -2.5031     1.1349    -0.0602 C.ar    
  21 F21           -2.7118     5.2404     0.2965 F       
  22 H22            4.0046     2.6094    -0.9686 H       
  23 H23            3.9742     2.7939     0.8138 H       
  24 H24            2.6463     0.9178     0.9954 H       
  25 H25            2.6819     0.7252    -0.7868 H       
  26 H26            0.6816     5.8883    -0.4633 H       
  27 H27            3.6436     8.9484    -0.7294 H       
  28 H28            5.4227     7.2627    -0.5267 H       
  29 H29            4.8490     4.8844    -0.2796 H       
  30 H30           -0.4998     3.8600     0.2281 H       
  31 H31           -4.7594     3.6346     0.1112 H       
  32 H32           -4.6367     1.1873    -0.0983 H       
  33 H33           -2.4516     0.0604    -0.1567 H       
@<TRIPOS>BOND
   1    1    2 2
   2    1    3 am
   3    1   15 1
   4    3    4 1
   5    3    7 1
   6    4    5 2
   7    5    6 1
   8    5    8 1
   9    6    7 1
  10    6   22 1
  11    6   23 1
  12    7   24 1
  13    7   25 1
  14    8    9 ar
  15    8   13 ar
  16    9   10 ar
  17    9   26 1
  18   10   11 ar
  19   10   14 1
  20   11   12 ar
  21   11   27 1
  22   12   13 ar
  23   12   28 1
  24   13   29 1
  25   15   16 ar
  26   15   20 ar
  27   16   17 ar
  28   16   30 1
  29   17   18 ar
  30   17   21 1
  31   18   19 ar
  32   18   31 1
  33   19   20 ar
  34   19   32 1
  35   20   33 1

#	End of record

