#	Name: ASD00431093
#	Creating user name:	WinNT
#	Creation time:	15. 06. 2019 18:35

#	Modifying user name:	WinNT
#	Modification time:	15. 06. 2019 18:35

#	Program:	/corina/corina34_cracker 3.40 0067  02.08.2006

@<TRIPOS>MOLECULE
ASD00431093
  46   48    0    0    0
SMALL
NO_CHARGES


@<TRIPOS>ATOM
   1 C1            -0.2026     1.7137     0.1520 C.3     
   2 C2            -0.1959     0.1840     0.1218 C.3     
   3 C3             1.9082     2.2872    -1.0757 C.ar    
   4 C4             1.2153     2.2230     0.1201 C.ar    
   5 C5             1.8376     2.6317     1.2862 C.ar    
   6 C6             3.1555     3.0978     1.2068 C.ar    
   7 C7             3.7847     3.1311    -0.0385 C.ar    
   8 N8             3.1494     2.7313    -1.1207 N.ar    
   9 S9             3.2164     3.5671     4.0579 S.3     
  10 C10            4.6918     4.1953     4.6500 C.2     
  11 N11            5.5372     4.3500     3.6790 N.2     
  12 C12            5.1323     4.0141     2.4723 C.2     
  13 C13            3.8681     3.5473     2.4212 C.2     
  14 O14            4.9422     4.4895     5.9484 O.3     
  15 C15            6.1991     4.8863     6.2820 C.ar    
  16 C16            6.6981     6.0877     5.8000 C.ar    
  17 C17            7.9750     6.4907     6.1390 C.ar    
  18 C18            8.7583     5.6943     6.9613 C.ar    
  19 C19            8.2594     4.4931     7.4433 C.ar    
  20 C20            6.9805     4.0927     7.1091 C.ar    
  21 O21           10.0155     6.0910     7.2946 O.3     
  22 C22           10.5155     7.2672     6.6555 C.3     
  23 C23           10.2379     8.4850     7.5391 C.3     
  24 C24           12.0236     7.1278     6.4384 C.3     
  25 N25           -0.9324     2.2233    -1.0166 N.3     
  26 H26           -0.6915     2.0569     1.0638 H       
  27 H27           -1.2215    -0.1844     0.1449 H       
  28 H28            0.2930    -0.1593    -0.7899 H       
  29 H29            0.3456    -0.1942     0.9889 H       
  30 H30            1.4262     1.9645    -1.9868 H       
  31 H31            1.3201     2.5925     2.2333 H       
  32 H32            4.8011     3.4881    -0.1154 H       
  33 H33            5.7592     4.1049     1.5975 H       
  34 H34            6.0884     6.7076     5.1595 H       
  35 H35            8.3636     7.4258     5.7635 H       
  36 H36            8.8696     3.8730     8.0832 H       
  37 H37            6.5905     3.1595     7.4880 H       
  38 H38           10.0202     7.3962     5.6931 H       
  39 H39            9.1635     8.5843     7.6938 H       
  40 H40           10.7331     8.3560     8.5015 H       
  41 H41           10.6193     9.3822     7.0516 H       
  42 H42           12.2213     6.2602     5.8088 H       
  43 H43           12.4050     8.0250     5.9508 H       
  44 H44           12.5188     6.9988     7.4008 H       
  45 H45           -0.4627     1.9728    -1.8737 H       
  46 H46           -1.8867     1.8955    -1.0181 H       
@<TRIPOS>BOND
   1    1    2 1
   2    1    4 1
   3    1   25 1
   4    1   26 1
   5    2   27 1
   6    2   28 1
   7    2   29 1
   8    3    4 ar
   9    3    8 ar
  10    3   30 1
  11    4    5 ar
  12    5    6 ar
  13    5   31 1
  14    6    7 ar
  15    6   13 1
  16    7    8 ar
  17    7   32 1
  18    9   10 1
  19    9   13 1
  20   10   11 2
  21   10   14 1
  22   11   12 1
  23   12   13 2
  24   12   33 1
  25   14   15 1
  26   15   16 ar
  27   15   20 ar
  28   16   17 ar
  29   16   34 1
  30   17   18 ar
  31   17   35 1
  32   18   19 ar
  33   18   21 1
  34   19   20 ar
  35   19   36 1
  36   20   37 1
  37   21   22 1
  38   22   23 1
  39   22   24 1
  40   22   38 1
  41   23   39 1
  42   23   40 1
  43   23   41 1
  44   24   42 1
  45   24   43 1
  46   24   44 1
  47   25   45 1
  48   25   46 1

#	End of record

