#	Name: ASD00060061
#	Creating user name:	WinNT
#	Creation time:	15. 06. 2019 18:29

#	Modifying user name:	WinNT
#	Modification time:	15. 06. 2019 18:29

#	Program:	/corina/corina34_cracker 3.40 0067  02.08.2006

@<TRIPOS>MOLECULE
ASD00060061
  40   43    0    0    0
SMALL
NO_CHARGES


@<TRIPOS>ATOM
   1 C1            -0.0166     1.3741     0.0096 C.ar    
   2 C2             6.4102    -4.1226    -0.0842 C.2     
   3 C3             1.1763     2.0836     0.0020 C.ar    
   4 C4             2.3801     1.4256    -0.0135 C.ar    
   5 C5             3.2985    -2.0668    -0.0413 C.2     
   6 C6             5.4219    -5.0462    -0.0879 C.2     
   7 C7             7.8522    -4.3853    -0.0982 C.2     
   8 O8             5.6022    -6.3868    -0.1042 O.3     
   9 C9             4.1140    -4.3582    -0.0706 C.2     
  10 O10            3.0338    -4.9142    -0.0691 O.2     
  11 C11            5.7413    -2.7679    -0.0694 C.3     
  12 C12            6.1168    -1.9828    -1.2996 C.2     
  13 C13            7.0080    -0.9910    -1.3367 C.2     
  14 C14            7.1930    -0.4192    -2.5836 C.2     
  15 C15            6.4519    -0.9467    -3.5593 C.2     
  16 S16            5.4524    -2.2390    -2.9079 S.3     
  17 N17            4.2965    -3.0253    -0.0564 N.am    
  18 S18            1.5749    -2.4126    -0.0261 S.3     
  19 C19            1.2151    -0.6878    -0.0132 C.ar    
  20 N20            3.5008    -0.7947    -0.0365 N.2     
  21 C21            2.4241     0.0153    -0.0215 C.ar    
  22 Cl22          -1.5314     2.2220     0.0214 Cl      
  23 C23            0.0021    -0.0041     0.0020 C.ar    
  24 H24            1.1567     3.1634     0.0080 H       
  25 H25            3.3003     1.9910    -0.0199 H       
  26 H26            4.7790    -6.8944    -0.1044 H       
  27 H27            6.0328    -2.2219     0.8278 H       
  28 H28            7.5445    -0.6591    -0.4600 H       
  29 H29            7.8846     0.3926    -2.7536 H       
  30 H30            6.4634    -0.6284    -4.5913 H       
  31 H31           -0.9267    -0.5552     0.0079 H       
  32 O32            8.7251    -3.3572    -0.0928 O.3     
  33 C33           10.1379    -3.6919    -0.1075 C.3     
  34 C34           10.9667    -2.4059    -0.0988 C.3     
  35 O35            8.2614    -5.5300    -0.1147 O.2     
  36 H36           10.3797    -4.2860     0.7738 H       
  37 H37           10.3662    -4.2652    -1.0060 H       
  38 H38           10.7249    -1.8118    -0.9800 H       
  39 H39           10.7385    -1.8326     0.7997 H       
  40 H40           12.0273    -2.6571    -0.1098 H       
@<TRIPOS>BOND
   1    1   23 ar
   2    1    3 ar
   3    1   22 1
   4    2    7 1
   5    2    6 2
   6    2   11 1
   7    3    4 ar
   8    3   24 1
   9    4   21 ar
  10    4   25 1
  11    5   18 1
  12    5   17 1
  13    5   20 2
  14    6    8 1
  15    6    9 1
  16    7   32 1
  17    7   35 2
  18    8   26 1
  19    9   10 2
  20    9   17 am
  21   11   17 1
  22   11   27 1
  23   11   12 1
  24   12   16 1
  25   12   13 2
  26   13   28 1
  27   13   14 1
  28   14   15 2
  29   14   29 1
  30   15   16 1
  31   15   30 1
  32   18   19 1
  33   19   21 ar
  34   19   23 ar
  35   20   21 1
  36   23   31 1
  37   32   33 1
  38   33   34 1
  39   33   36 1
  40   33   37 1
  41   34   38 1
  42   34   39 1
  43   34   40 1

#	End of record

