#	Name: ASD01884054
#	Creating user name:	WinNT
#	Creation time:	15. 06. 2019 19:47

#	Modifying user name:	WinNT
#	Modification time:	15. 06. 2019 19:47

#	Program:	/corina/corina34_cracker 3.40 0067  02.08.2006

@<TRIPOS>MOLECULE
ASD01884054
  51   53    0    0    0
SMALL
NO_CHARGES


@<TRIPOS>ATOM
   1 C1             0.0656     1.4043    -0.6573 C.2     
   2 C2             0.1012     0.0080    -0.4203 C.2     
   3 C3             1.2023    -0.7287    -0.8918 C.2     
   4 C4             2.2259    -0.0487    -1.5810 C.2     
   5 C5             2.1367     1.2862    -1.7772 C.2     
   6 N6             1.0737     1.9983    -1.3222 N.am    
   7 C7            -0.9627    -0.6403     0.2858 C.1     
   8 N8            -1.8066    -1.1545     0.8459 N.1     
   9 O9            -0.8797     2.0662    -0.2639 O.2     
  10 C10            1.2845    -2.1869    -0.6685 C.ar    
  11 C11            1.2494    -3.0649    -1.7547 C.ar    
  12 C12            1.3262    -4.4236    -1.5424 C.ar    
  13 C13            1.4385    -4.9216    -0.2497 C.ar    
  14 C14            1.4738    -4.0514     0.8336 C.ar    
  15 C15            1.4033    -2.6911     0.6290 C.ar    
  16 O16            1.5136    -6.2614    -0.0444 O.3     
  17 C17            2.8714    -8.2197     0.0358 C.ar    
  18 C18            2.7424    -6.8413    -0.0596 C.ar    
  19 C19            3.8893    -6.0617    -0.1714 C.ar    
  20 C20            5.1199    -6.6985    -0.1830 C.ar    
  21 C21            5.1677    -8.0763    -0.0838 C.ar    
  22 N22            4.0613    -8.7865     0.0206 N.ar    
  23 C23            1.6387    -9.0770     0.1637 C.3     
  24 C24            1.0231     3.4429    -1.5605 C.3     
  25 C25            1.6927     4.1756    -0.3961 C.3     
  26 C26            1.6398     5.6843    -0.6449 C.3     
  27 C27            0.1832     6.1523    -0.6336 C.3     
  28 C28            2.4172     6.4101     0.4550 C.3     
  29 H29            3.0815    -0.5933    -1.9520 H       
  30 H30            2.9274     1.7967    -2.3069 H       
  31 H31            1.1617    -2.6787    -2.7595 H       
  32 H32            1.2987    -5.1029    -2.3816 H       
  33 H33            1.5609    -4.4421     1.8367 H       
  34 H34            1.4357    -2.0153     1.4709 H       
  35 H35            3.8221    -4.9865    -0.2478 H       
  36 H36            6.0310    -6.1251    -0.2688 H       
  37 H37            6.1240    -8.5781    -0.0922 H       
  38 H38            1.2879    -9.3595    -0.8289 H       
  39 H39            1.8780    -9.9748     0.7336 H       
  40 H40            0.8584    -8.5168     0.6790 H       
  41 H41            1.5477     3.6770    -2.4868 H       
  42 H42           -0.0161     3.7617    -1.6409 H       
  43 H43            1.1681     3.9415     0.5303 H       
  44 H44            2.7319     3.8568    -0.3157 H       
  45 H45            2.0860     5.9086    -1.6137 H       
  46 H46           -0.3707     5.6352    -1.4172 H       
  47 H47           -0.2630     5.9280     0.3352 H       
  48 H48            0.1455     7.2272    -0.8109 H       
  49 H49            3.4549     6.0767     0.4469 H       
  50 H50            2.3795     7.4850     0.2777 H       
  51 H51            1.9710     6.1858     1.4238 H       
@<TRIPOS>BOND
   1    1    2 1
   2    1    6 am
   3    1    9 2
   4    2    3 2
   5    2    7 1
   6    3    4 1
   7    3   10 1
   8    4    5 2
   9    4   29 1
  10    5    6 1
  11    5   30 1
  12    6   24 1
  13    7    8 3
  14   10   11 ar
  15   10   15 ar
  16   11   12 ar
  17   11   31 1
  18   12   13 ar
  19   12   32 1
  20   13   14 ar
  21   13   16 1
  22   14   15 ar
  23   14   33 1
  24   15   34 1
  25   16   18 1
  26   17   18 ar
  27   17   22 ar
  28   17   23 1
  29   18   19 ar
  30   19   20 ar
  31   19   35 1
  32   20   21 ar
  33   20   36 1
  34   21   22 ar
  35   21   37 1
  36   23   38 1
  37   23   39 1
  38   23   40 1
  39   24   25 1
  40   24   41 1
  41   24   42 1
  42   25   26 1
  43   25   43 1
  44   25   44 1
  45   26   27 1
  46   26   28 1
  47   26   45 1
  48   27   46 1
  49   27   47 1
  50   27   48 1
  51   28   49 1
  52   28   50 1
  53   28   51 1

#	End of record

