#	Name: ASD03091046
#	Creating user name:	WinNT
#	Creation time:	15. 06. 2019 20:29

#	Modifying user name:	WinNT
#	Modification time:	15. 06. 2019 20:29

#	Program:	/corina/corina34_cracker 3.40 0067  02.08.2006

@<TRIPOS>MOLECULE
ASD03091046
  35   36    0    0    0
SMALL
NO_CHARGES


@<TRIPOS>ATOM
   1 C1             0.4278     1.4331    -0.2709 C.2     
   2 C2             0.2183    -0.0241    -0.1343 C.ar    
   3 C3             0.7087    -0.7007     0.9839 C.ar    
   4 C4             0.5107    -2.0603     1.1065 C.ar    
   5 C5            -0.1726    -2.7549     0.1244 C.ar    
   6 C6            -0.6625    -2.0905    -0.9884 C.ar    
   7 C7            -0.4753    -0.7274    -1.1197 C.ar    
   8 O8             1.5543     1.8893    -0.2552 O.2     
   9 N9            -0.6301     2.2551    -0.4185 N.am    
  10 N10            1.4406     0.0396     2.0361 N.pl3   
  11 O11            1.9806    -0.5670     2.9439 O.2     
  12 O12            1.5028     1.2553     1.9942 O.2     
  13 C13           -0.4226     3.6990    -0.5539 C.3     
  14 C14           -2.9191     6.6013    -0.9546 C.3     
  15 C15           -1.5706     5.9145    -0.7228 C.3     
  16 C16           -1.7757     4.3966    -0.7064 C.3     
  17 C17           -2.4284     3.9664    -2.0237 C.3     
  18 C18           -3.7437     4.7284    -2.2052 C.3     
  19 O19           -3.4859     6.1338    -2.1803 O.3     
  20 F20           -1.3288    -2.7751    -1.9436 F       
  21 H21            0.8903    -2.5840     1.9714 H       
  22 H22           -0.3246    -3.8194     0.2254 H       
  23 H23           -0.8610    -0.2089    -1.9850 H       
  24 H24           -1.5289     1.8906    -0.4351 H       
  25 H25            0.0837     4.0781     0.3339 H       
  26 H26            0.1896     3.8972    -1.4337 H       
  27 H27           -3.5926     6.3675    -0.1301 H       
  28 H28           -2.7728     7.6801    -1.0099 H       
  29 H29           -0.8835     6.1806    -1.5261 H       
  30 H30           -1.1573     6.2366     0.2329 H       
  31 H31           -2.4221     4.1250     0.1281 H       
  32 H32           -1.7586     4.1931    -2.8532 H       
  33 H33           -2.6286     2.8952    -1.9982 H       
  34 H34           -4.1916     4.4579    -3.1614 H       
  35 H35           -4.4280     4.4700    -1.3971 H       
@<TRIPOS>BOND
   1    1    2 1
   2    1    8 2
   3    1    9 am
   4    2    3 ar
   5    2    7 ar
   6    3    4 ar
   7    3   10 1
   8    4    5 ar
   9    4   21 1
  10    5    6 ar
  11    5   22 1
  12    6    7 ar
  13    6   20 1
  14    7   23 1
  15    9   13 1
  16    9   24 1
  17   10   11 2
  18   10   12 2
  19   13   16 1
  20   13   25 1
  21   13   26 1
  22   14   15 1
  23   14   19 1
  24   14   27 1
  25   14   28 1
  26   15   16 1
  27   15   29 1
  28   15   30 1
  29   16   17 1
  30   16   31 1
  31   17   18 1
  32   17   32 1
  33   17   33 1
  34   18   19 1
  35   18   34 1
  36   18   35 1

#	End of record

