#	Name: ASD01883532
#	Creating user name:	WinNT
#	Creation time:	15. 06. 2019 19:46

#	Modifying user name:	WinNT
#	Modification time:	15. 06. 2019 19:46

#	Program:	/corina/corina34_cracker 3.40 0067  02.08.2006

@<TRIPOS>MOLECULE
ASD01883532
  54   57    0    0    0
SMALL
NO_CHARGES


@<TRIPOS>ATOM
   1 C1            -0.0171     1.4071     0.0098 C.2     
   2 C2            -0.0028     0.0058     0.1770 C.2     
   3 C3            -1.1646    -0.6803     0.1823 C.2     
   4 N4            -2.3544    -0.0404     0.0280 N.am    
   5 C5            -2.4105     1.2944    -0.1342 C.2     
   6 C6            -1.2345     2.0517    -0.1411 C.2     
   7 O7            -3.4915     1.8466    -0.2710 O.2     
   8 Cl8           -1.2982     3.7740    -0.3492 Cl      
   9 N9             1.1653     2.1265     0.0024 N.pl3   
  10 C10            2.1692     1.9060    -1.0476 C.3     
  11 C11            3.5175     1.6054    -0.3854 C.3     
  12 C12            3.8650     2.7327     0.5896 C.3     
  13 C13            2.7968     2.8113     1.6828 C.3     
  14 C14            1.4379     3.1295     1.0408 C.3     
  15 C15           -3.5964    -0.8173     0.0378 C.3     
  16 C16            5.2069     2.4573     1.2177 C.ar    
  17 C17            6.2437     3.3570     1.0553 C.ar    
  18 C18            7.4746     3.1045     1.6315 C.ar    
  19 C19            7.6685     1.9524     2.3704 C.ar    
  20 C20            6.6314     1.0531     2.5336 C.ar    
  21 C21            5.3993     1.3078     1.9611 C.ar    
  22 C22           -4.1153    -0.9171     1.4491 C.ar    
  23 C23           -4.9836     0.0432     1.9347 C.ar    
  24 C24           -5.4607    -0.0461     3.2281 C.ar    
  25 C25           -5.0679    -1.1003     4.0399 C.ar    
  26 C26           -4.1967    -2.0625     3.5503 C.ar    
  27 C27           -3.7268    -1.9718     2.2544 C.ar    
  28 O28           -5.5355    -1.1900     5.3128 O.3     
  29 C29           -5.0888    -2.3020     6.0911 C.3     
  30 F30           -3.6950    -2.2619     6.2047 F       
  31 F31           -5.6625    -2.2397     7.3656 F       
  32 F32           -5.4716    -3.4932     5.4652 F       
  33 H33            0.9349    -0.5157     0.3000 H       
  34 H34           -1.1493    -1.7525     0.3106 H       
  35 H35            1.8700     1.0607    -1.6675 H       
  36 H36            2.2561     2.8009    -1.6638 H       
  37 H37            3.4542     0.6620     0.1568 H       
  38 H38            4.2908     1.5348    -1.1504 H       
  39 H39            3.9037     3.6795     0.0511 H       
  40 H40            2.7403     1.8565     2.2055 H       
  41 H41            3.0571     3.5989     2.3899 H       
  42 H42            1.4676     4.1244     0.5966 H       
  43 H43            0.6567     3.0892     1.8000 H       
  44 H44           -4.3392    -0.3230    -0.5883 H       
  45 H45           -3.4024    -1.8175    -0.3495 H       
  46 H46            6.0922     4.2571     0.4780 H       
  47 H47            8.2849     3.8070     1.5040 H       
  48 H48            8.6304     1.7547     2.8199 H       
  49 H49            6.7830     0.1529     3.1106 H       
  50 H50            4.5890     0.6053     2.0885 H       
  51 H51           -5.2887     0.8638     1.3025 H       
  52 H52           -6.1385     0.7045     3.6071 H       
  53 H53           -3.8895    -2.8841     4.1803 H       
  54 H54           -3.0486    -2.7206     1.8727 H       
@<TRIPOS>BOND
   1    1    2 1
   2    1    9 1
   3    1    6 2
   4    2    3 2
   5    2   33 1
   6    3    4 1
   7    3   34 1
   8    4    5 am
   9    4   15 1
  10    5    6 1
  11    5    7 2
  12    6    8 1
  13    9   10 1
  14    9   14 1
  15   10   11 1
  16   10   35 1
  17   10   36 1
  18   11   12 1
  19   11   37 1
  20   11   38 1
  21   12   13 1
  22   12   16 1
  23   12   39 1
  24   13   14 1
  25   13   40 1
  26   13   41 1
  27   14   42 1
  28   14   43 1
  29   15   22 1
  30   15   44 1
  31   15   45 1
  32   16   17 ar
  33   16   21 ar
  34   17   18 ar
  35   17   46 1
  36   18   19 ar
  37   18   47 1
  38   19   20 ar
  39   19   48 1
  40   20   21 ar
  41   20   49 1
  42   21   50 1
  43   22   23 ar
  44   22   27 ar
  45   23   24 ar
  46   23   51 1
  47   24   25 ar
  48   24   52 1
  49   25   26 ar
  50   25   28 1
  51   26   27 ar
  52   26   53 1
  53   27   54 1
  54   28   29 1
  55   29   30 1
  56   29   31 1
  57   29   32 1

#	End of record

