#	Name: ASD01914990
#	Creating user name:	WinNT
#	Creation time:	15. 06. 2019 20:04

#	Modifying user name:	WinNT
#	Modification time:	15. 06. 2019 20:04

#	Program:	/corina/corina34_cracker 3.40 0067  02.08.2006

@<TRIPOS>MOLECULE
ASD01914990
  44   47    0    0    0
SMALL
NO_CHARGES


@<TRIPOS>ATOM
   1 C1            -0.2251     1.4568    -1.1230 C.ar    
   2 C2            -0.2364     0.0835    -1.2782 C.ar    
   3 C3             0.9371    -0.6372    -1.1513 C.ar    
   4 C4             2.1237     0.0134    -0.8695 C.ar    
   5 C5             2.1406     1.3864    -0.7133 C.ar    
   6 C6             0.9658     2.1122    -0.8399 C.ar    
   7 O7             0.9801     3.4628    -0.6871 O.3     
   8 C8             2.2410     4.0696    -0.3971 C.3     
   9 C9             2.0622     5.5599    -0.2628 C.2     
  10 C10            0.8553     6.2603    -0.3922 C.2     
  11 N11            3.0085     6.4303     0.0015 N.2     
  12 C12            1.1830     7.5712    -0.1933 C.2     
  13 C13            0.3666     8.7946    -0.1945 C.2     
  14 N14            2.5367     7.6139     0.0588 N.pl3   
  15 C15            3.2146     8.8821     0.3536 C.3     
  16 C16            2.4905    10.0194    -0.3654 C.3     
  17 N17            1.0428     9.9689    -0.1751 N.am    
  18 O18           -0.8490     8.7546    -0.2125 O.2     
  19 C19            0.3393    11.1597     0.0374 C.ar    
  20 C20           -0.9446    12.5844     1.4773 C.ar    
  21 C21           -0.2511    11.4082     1.2696 C.ar    
  22 C22            0.2353    12.0973    -0.9818 C.ar    
  23 C23           -0.4591    13.2721    -0.7698 C.ar    
  24 C24           -1.0511    13.5158     0.4581 C.ar    
  25 F25           -1.7299    14.6656     0.6634 F       
  26 C26            3.1916     9.1350     1.8624 C.3     
  27 Cl27          -1.6971     2.3622    -1.2889 Cl      
  28 H28           -1.1622    -0.4272    -1.4985 H       
  29 H29            0.9263    -1.7104    -1.2722 H       
  30 H30            3.0386    -0.5519    -0.7709 H       
  31 H31            3.0680     1.8938    -0.4924 H       
  32 H32            2.6327     3.6651     0.5362 H       
  33 H33            2.9403     3.8589    -1.2062 H       
  34 H34           -0.1220     5.8520    -0.6034 H       
  35 H35            4.2471     8.8318     0.0080 H       
  36 H36            2.8627    10.9706     0.0153 H       
  37 H37            2.7099     9.9586    -1.4314 H       
  38 H38           -1.4042    12.7778     2.4353 H       
  39 H39           -0.1683    10.6821     2.0648 H       
  40 H40            0.6975    11.9080    -1.9394 H       
  41 H41           -0.5402    14.0015    -1.5622 H       
  42 H42            3.7048     8.3213     2.3750 H       
  43 H43            3.6951    10.0768     2.0806 H       
  44 H44            2.1587     9.1870     2.2065 H       
@<TRIPOS>BOND
   1    1    2 ar
   2    1    6 ar
   3    1   27 1
   4    2    3 ar
   5    2   28 1
   6    3    4 ar
   7    3   29 1
   8    4    5 ar
   9    4   30 1
  10    5    6 ar
  11    5   31 1
  12    6    7 1
  13    7    8 1
  14    8    9 1
  15    8   32 1
  16    8   33 1
  17    9   11 2
  18    9   10 1
  19   10   12 2
  20   10   34 1
  21   11   14 1
  22   12   14 1
  23   12   13 1
  24   13   17 am
  25   13   18 2
  26   14   15 1
  27   15   16 1
  28   15   26 1
  29   15   35 1
  30   16   17 1
  31   16   36 1
  32   16   37 1
  33   17   19 1
  34   19   22 ar
  35   19   21 ar
  36   20   21 ar
  37   20   24 ar
  38   20   38 1
  39   21   39 1
  40   22   23 ar
  41   22   40 1
  42   23   24 ar
  43   23   41 1
  44   24   25 1
  45   26   42 1
  46   26   43 1
  47   26   44 1

#	End of record

