#	Name: ASD01830032
#	Creating user name:	WinNT
#	Creation time:	15. 06. 2019 19:36

#	Modifying user name:	WinNT
#	Modification time:	15. 06. 2019 19:36

#	Program:	/corina/corina34_cracker 3.40 0067  02.08.2006

@<TRIPOS>MOLECULE
ASD01830032
  50   52    0    0    0
SMALL
NO_CHARGES


@<TRIPOS>ATOM
   1 N1            -1.4785     1.5822    -2.1211 N.4     
   2 C2            -1.4573     0.1154    -2.1707 C.3     
   3 C3            -2.7831    -0.4358    -1.6415 C.3     
   4 C4            -2.9799     0.0248    -0.1944 C.3     
   5 C5            -2.9260     1.5545    -0.1441 C.3     
   6 C6            -1.5949     2.0319    -0.7287 C.3     
   7 C7            -0.2359     2.1083    -2.7018 C.3     
   8 C8            -2.6263     2.0802    -2.8910 C.3     
   9 O9            -4.2707    -0.4316     0.2892 O.3     
  10 C10           -4.3750    -0.6830     1.6036 C.2     
  11 O11           -3.4193    -0.5267     2.3262 O.2     
  12 C12           -5.6840    -1.1600     2.1781 C.3     
  13 C13           -6.0738    -2.4617     1.5265 C.ar    
  14 C14           -5.5351    -1.3665     3.6634 C.ar    
  15 C15           -7.3385    -2.6144     0.9896 C.ar    
  16 C16           -7.6962    -3.8084     0.3920 C.ar    
  17 C17           -6.7890    -4.8497     0.3307 C.ar    
  18 C18           -5.5240    -4.6967     0.8667 C.ar    
  19 C19           -5.1649    -3.5011     1.4606 C.ar    
  20 C20           -6.4193    -0.7620     4.5373 C.ar    
  21 C21           -6.2828    -0.9514     5.8998 C.ar    
  22 C22           -5.2624    -1.7457     6.3883 C.ar    
  23 C23           -4.3787    -2.3510     5.5144 C.ar    
  24 C24           -4.5179    -2.1651     4.1517 C.ar    
  25 H25           -1.3140    -0.2109    -3.2008 H       
  26 H26           -0.6382    -0.2567    -1.5553 H       
  27 H27           -3.6030    -0.0645    -2.2564 H       
  28 H28           -2.7647    -1.5251    -1.6775 H       
  29 H29           -2.1883    -0.3885     0.4306 H       
  30 H30           -3.7488     1.9671    -0.7279 H       
  31 H31           -3.0097     1.8878     0.8903 H       
  32 H32           -0.7729     1.6190    -0.1441 H       
  33 H33           -1.5531     3.1206    -0.6943 H       
  34 H34           -0.1517     1.7804    -3.7379 H       
  35 H35           -0.2506     3.1976    -2.6655 H       
  36 H36            0.6166     1.7373    -2.1329 H       
  37 H37           -3.5487     1.6882    -2.4626 H       
  38 H38           -2.6429     3.1694    -2.8549 H       
  39 H39           -2.5387     1.7523    -3.9268 H       
  40 H40           -6.4564    -0.4141     1.9905 H       
  41 H41           -8.0473    -1.8009     1.0375 H       
  42 H42           -8.6845    -3.9280    -0.0268 H       
  43 H43           -7.0687    -5.7828    -0.1356 H       
  44 H44           -4.8154    -5.5103     0.8192 H       
  45 H45           -4.1766    -3.3816     1.8793 H       
  46 H46           -7.2165    -0.1414     4.1556 H       
  47 H47           -6.9731    -0.4785     6.5826 H       
  48 H48           -5.1553    -1.8931     7.4529 H       
  49 H49           -3.5813    -2.9713     5.8961 H       
  50 H50           -3.8276    -2.6380     3.4689 H       
@<TRIPOS>BOND
   1    1    2 1
   2    1    7 1
   3    1    8 1
   4    1    6 1
   5    2    3 1
   6    2   25 1
   7    2   26 1
   8    3    4 1
   9    3   27 1
  10    3   28 1
  11    4    5 1
  12    4    9 1
  13    4   29 1
  14    5    6 1
  15    5   30 1
  16    5   31 1
  17    6   32 1
  18    6   33 1
  19    7   34 1
  20    7   35 1
  21    7   36 1
  22    8   37 1
  23    8   38 1
  24    8   39 1
  25    9   10 1
  26   10   11 2
  27   10   12 1
  28   12   13 1
  29   12   14 1
  30   12   40 1
  31   13   15 ar
  32   13   19 ar
  33   14   20 ar
  34   14   24 ar
  35   15   16 ar
  36   15   41 1
  37   16   17 ar
  38   16   42 1
  39   17   18 ar
  40   17   43 1
  41   18   19 ar
  42   18   44 1
  43   19   45 1
  44   20   21 ar
  45   20   46 1
  46   21   22 ar
  47   21   47 1
  48   22   23 ar
  49   22   48 1
  50   23   24 ar
  51   23   49 1
  52   24   50 1

#	End of record

