#	Name: ASD02039246
#	Creating user name:	WinNT
#	Creation time:	15. 06. 2019 20:17

#	Modifying user name:	WinNT
#	Modification time:	15. 06. 2019 20:17

#	Program:	/corina/corina34_cracker 3.40 0067  02.08.2006

@<TRIPOS>MOLECULE
ASD02039246
  41   44    0    0    0
SMALL
NO_CHARGES


@<TRIPOS>ATOM
   1 N1            -0.0160     1.3037    -0.0272 N.2     
   2 C2             0.0020    -0.0039     0.0001 C.2     
   3 C3             1.3718    -0.3810     0.0202 C.2     
   4 C4             2.0347     0.7972     0.0016 C.2     
   5 O5             1.1032     1.7614    -0.0267 O.3     
   6 N6            -1.0991    -0.8547     0.0084 N.pl3   
   7 C7            -0.9159    -2.2379    -0.1060 C.ar    
   8 C8             0.1064    -2.7398    -0.9010 C.ar    
   9 C9             0.2870    -4.1044    -1.0136 C.ar    
  10 C10           -0.5518    -4.9741    -0.3328 C.ar    
  11 C11           -1.5738    -4.4738     0.4620 C.ar    
  12 C12           -1.7524    -3.1084     0.5798 C.ar    
  13 O13            4.0145     1.0219    -1.3320 O.3     
  14 C14            5.3533     1.1901    -1.5011 C.ar    
  15 C15            6.1812     1.3213    -0.3878 C.ar    
  16 C16            7.5281     1.4911    -0.5351 C.ar    
  17 C17            8.0906     1.5355    -1.8080 C.ar    
  18 C18            7.2627     1.4039    -2.9393 C.ar    
  19 C19            5.8848     1.2244    -2.7733 C.ar    
  20 C20            3.5294     0.9895     0.0117 C.3     
  21 Cl21          -2.6237    -5.5632     1.3134 Cl      
  22 O22           -0.3731    -6.3178    -0.4444 O.3     
  23 C23            0.6977    -6.7627    -1.2795 C.3     
  24 F24            0.4943    -6.3009    -2.5843 F       
  25 F25            1.9092    -6.2616    -0.7910 F       
  26 N26            9.3723     1.6899    -2.2732 N.pl3   
  27 N27            9.3577     1.6569    -3.6713 N.2     
  28 C28            8.1399     1.4908    -4.1024 C.2     
  29 H29            1.7871    -1.3777     0.0449 H       
  30 H30           -1.9937    -0.4894     0.0934 H       
  31 H31            0.7599    -2.0631    -1.4314 H       
  32 H32            1.0816    -4.4944    -1.6324 H       
  33 H33           -2.5473    -2.7189     1.1984 H       
  34 H34            5.7526     1.2887     0.6029 H       
  35 H35            8.1577     1.5914     0.3366 H       
  36 H36            5.2415     1.1225    -3.6348 H       
  37 H37            3.7715     1.9292     0.5082 H       
  38 H38            3.9983     0.1642     0.5475 H       
  39 H39            0.7291    -7.8522    -1.2805 H       
  40 H40           10.1616     1.8036    -1.7210 H       
  41 H41            7.8339     1.4279    -5.1362 H       
@<TRIPOS>BOND
   1    1    2 2
   2    1    5 1
   3    2    3 1
   4    2    6 1
   5    3    4 2
   6    3   29 1
   7    4    5 1
   8    4   20 1
   9    6    7 1
  10    6   30 1
  11    7    8 ar
  12    7   12 ar
  13    8    9 ar
  14    8   31 1
  15    9   10 ar
  16    9   32 1
  17   10   11 ar
  18   10   22 1
  19   11   12 ar
  20   11   21 1
  21   12   33 1
  22   13   14 1
  23   13   20 1
  24   14   15 ar
  25   14   19 ar
  26   15   16 ar
  27   15   34 1
  28   16   17 ar
  29   16   35 1
  30   17   18 ar
  31   17   26 1
  32   18   19 ar
  33   18   28 1
  34   19   36 1
  35   20   37 1
  36   20   38 1
  37   22   23 1
  38   23   24 1
  39   23   25 1
  40   23   39 1
  41   26   27 1
  42   26   40 1
  43   27   28 2
  44   28   41 1

#	End of record

