#	Name: ASD03240551
#	Creating user name:	WinNT
#	Creation time:	15. 06. 2019 20:35

#	Modifying user name:	WinNT
#	Modification time:	15. 06. 2019 20:35

#	Program:	/corina/corina34_cracker 3.40 0067  02.08.2006

@<TRIPOS>MOLECULE
ASD03240551
  60   66    0    0    0
SMALL
NO_CHARGES


@<TRIPOS>ATOM
   1 C1            -0.0166     1.3754     0.0096 C.ar    
   2 C2             0.0021    -0.0041     0.0020 C.ar    
   3 N3             1.1422    -0.6683    -0.0054 N.ar    
   4 C4             2.3145    -0.0481    -0.0053 C.ar    
   5 C5             2.3702     1.3442    -0.0124 C.ar    
   6 C6             1.1861     2.0698     0.0018 C.ar    
   7 N7             3.4821    -0.8058     0.0230 N.pl3   
   8 C8             4.3590    -0.7188     1.1008 C.ar    
   9 C9             4.9949     0.4898     1.4044 C.ar    
  10 C10            4.7634     1.6838     0.5622 C.2     
  11 N11            3.5939     2.0276    -0.0512 N.pl3   
  12 C12            4.6050    -1.8382     1.8846 C.ar    
  13 C13            5.4642    -1.7522     2.9634 C.ar    
  14 C14            6.0851    -0.5540     3.2717 C.ar    
  15 C15            5.8557     0.5666     2.4990 C.ar    
  16 N16            5.6749     2.5947     0.2849 N.2     
  17 C17            5.1450     3.5402    -0.5058 C.2     
  18 C18            3.8228     3.2045    -0.7373 C.2     
  19 C19            2.8502     3.9547    -1.5547 C.ar    
  20 C20            2.7512     5.3428    -1.4299 C.ar    
  21 C21            2.0279     3.2812    -2.4615 C.ar    
  22 C22            1.1211     3.9890    -3.2223 C.ar    
  23 C23            1.0245     5.3631    -3.0892 C.ar    
  24 C24            1.8398     6.0375    -2.1973 C.ar    
  25 C25            5.8496     4.7306    -1.0365 C.ar    
  26 C26            0.0315     6.1294    -3.9244 C.3     
  27 N27           -1.0471     5.2814    -4.4494 N.3     
  28 C28           -0.4698     7.4202    -3.2556 C.3     
  29 C29           -0.3827     8.0793    -4.6422 C.3     
  30 C30            0.6845     7.0256    -4.9900 C.3     
  31 C31            6.8245     5.3846    -0.2769 C.ar    
  32 N32            7.4306     6.4427    -0.7856 N.ar    
  33 C33            7.1253     6.8845    -1.9972 C.ar    
  34 N34            6.2074     6.2922    -2.7475 N.ar    
  35 C35            5.5608     5.2254    -2.3120 C.ar    
  36 N36            7.7835     7.9967    -2.4929 N.pl3   
  37 H37           -0.9556     1.9091     0.0170 H       
  38 H38           -0.9306    -0.5486     0.0025 H       
  39 H39            1.2002     3.1497     0.0064 H       
  40 H40            3.6865    -1.4005    -0.7156 H       
  41 H41            4.1241    -2.7766     1.6512 H       
  42 H42            5.6524    -2.6255     3.5702 H       
  43 H43            6.7510    -0.4956     4.1200 H       
  44 H44            6.3414     1.5002     2.7415 H       
  45 H45            3.3866     5.8704    -0.7340 H       
  46 H46            2.1024     2.2089    -2.5666 H       
  47 H47            0.4850     3.4698    -3.9238 H       
  48 H48            1.7591     7.1100    -2.0986 H       
  49 H49           -0.6739     4.4597    -4.9005 H       
  50 H50           -1.6968     5.0297    -3.7196 H       
  51 H51           -1.4869     7.3459    -2.8706 H       
  52 H52            0.2292     7.8358    -2.5298 H       
  53 H53           -1.2961     7.9839    -5.2292 H       
  54 H54            0.0012     9.0992    -4.6175 H       
  55 H55            1.6997     7.3328    -4.7387 H       
  56 H56            0.5982     6.6349    -6.0039 H       
  57 H57            7.0781     5.0303     0.7113 H       
  58 H58            4.8142     4.7475    -2.9289 H       
  59 H59            8.4575     8.4411    -1.9552 H       
  60 H60            7.5708     8.3317    -3.3780 H       
@<TRIPOS>BOND
   1    1    2 ar
   2    1    6 ar
   3    1   37 1
   4    2    3 ar
   5    2   38 1
   6    3    4 ar
   7    4    5 ar
   8    4    7 1
   9    5    6 ar
  10    5   11 1
  11    6   39 1
  12    7    8 1
  13    7   40 1
  14    8    9 ar
  15    8   12 ar
  16    9   10 1
  17    9   15 ar
  18   10   11 1
  19   10   16 2
  20   11   18 1
  21   12   13 ar
  22   12   41 1
  23   13   14 ar
  24   13   42 1
  25   14   15 ar
  26   14   43 1
  27   15   44 1
  28   16   17 1
  29   17   18 2
  30   17   25 1
  31   18   19 1
  32   19   20 ar
  33   19   21 ar
  34   20   24 ar
  35   20   45 1
  36   21   22 ar
  37   21   46 1
  38   22   23 ar
  39   22   47 1
  40   23   24 ar
  41   23   26 1
  42   24   48 1
  43   25   31 ar
  44   25   35 ar
  45   26   27 1
  46   26   28 1
  47   26   30 1
  48   27   49 1
  49   27   50 1
  50   28   29 1
  51   28   51 1
  52   28   52 1
  53   29   30 1
  54   29   53 1
  55   29   54 1
  56   30   55 1
  57   30   56 1
  58   31   32 ar
  59   31   57 1
  60   32   33 ar
  61   33   34 ar
  62   33   36 1
  63   34   35 ar
  64   35   58 1
  65   36   59 1
  66   36   60 1

#	End of record

