#	Name: ASD04590651
#	Creating user name:	WinNT
#	Creation time:	15. 06. 2019 20:51

#	Modifying user name:	WinNT
#	Modification time:	15. 06. 2019 20:51

#	Program:	/corina/corina34_cracker 3.40 0067  02.08.2006

@<TRIPOS>MOLECULE
ASD04590651
  59   63    0    0    0
SMALL
NO_CHARGES


@<TRIPOS>ATOM
   1 N1             0.4510     1.8338     0.0139 N.ar    
   2 C2             0.2950     0.5196     0.1090 C.ar    
   3 N3             1.3195    -0.3176     0.0892 N.ar    
   4 C4             2.5633     0.1375    -0.0293 C.ar    
   5 C5             2.7625     1.5289    -0.1330 C.ar    
   6 C6             1.6544     2.3698    -0.1069 C.ar    
   7 N7             3.7881    -0.4808    -0.0775 N.pl3   
   8 C8             4.7981     0.4564    -0.2102 C.ar    
   9 C9             4.2118     1.7341    -0.2502 C.ar    
  10 C10            6.1804     0.3590    -0.3033 C.ar    
  11 N11            6.9217     1.4411    -0.4260 N.ar    
  12 C12            6.4024     2.6554    -0.4667 C.ar    
  13 C13            5.0399     2.8483    -0.3808 C.ar    
  14 N14           -0.9853     0.0060     0.2339 N.pl3   
  15 C15           -2.0726     0.8688     0.3701 C.ar    
  16 C16            3.9968    -1.9288     0.0009 C.3     
  17 N17           -1.8645     2.1708     0.4812 N.ar    
  18 C18           -2.8626     3.0240     0.6120 C.ar    
  19 C19           -4.1761     2.5800     0.6380 C.ar    
  20 C20           -4.4344     1.2148     0.5236 C.ar    
  21 C21           -3.3634     0.3515     0.3820 C.ar    
  22 N22           -5.2296     3.4912     0.7779 N.3     
  23 C23            3.4464    -2.4522     1.3291 C.3     
  24 C24            3.2685    -2.6126    -1.1579 C.3     
  25 C25           -4.7251     4.8676     0.8812 C.3     
  26 C26           -5.9071     5.8373     0.9525 C.3     
  27 N27           -6.7460     5.4987     2.1105 N.3     
  28 C28           -7.2505     4.1223     2.0073 C.3     
  29 C29           -6.0685     3.1526     1.9360 C.3     
  30 C30            3.9085    -2.1912    -2.4822 C.3     
  31 C31            4.2638    -1.8708     2.4844 C.3     
  32 H32            1.7743     3.4403    -0.1846 H       
  33 H33            6.6517    -0.6123    -0.2744 H       
  34 H34            7.0551     3.5099    -0.5681 H       
  35 H35            4.6219     3.8435    -0.4151 H       
  36 H36           -1.1257    -0.9538     0.2267 H       
  37 H37            5.0631    -2.1460    -0.0614 H       
  38 H38           -2.6543     4.0800     0.7000 H       
  39 H39           -5.4474     0.8406     0.5407 H       
  40 H40           -3.5269    -0.7121     0.2903 H       
  41 H41            2.4040    -2.1515     1.4341 H       
  42 H42            3.5144    -3.5399     1.3471 H       
  43 H43            3.3432    -3.6943    -1.0463 H       
  44 H44            2.2190    -2.3182    -1.1517 H       
  45 H45           -4.1191     4.9662     1.7818 H       
  46 H46           -4.1174     5.0988     0.0064 H       
  47 H47           -5.5355     6.8565     1.0582 H       
  48 H48           -6.4979     5.7582     0.0399 H       
  49 H49           -6.2425     5.6354     2.9741 H       
  50 H50           -7.8583     3.8911     2.8821 H       
  51 H51           -7.8566     4.0237     1.1067 H       
  52 H52           -6.4402     2.1334     1.8302 H       
  53 H53           -5.4777     3.2317     2.8486 H       
  54 H54            4.9770    -2.4047    -2.4536 H       
  55 H55            3.4489    -2.7455    -3.3005 H       
  56 H56            3.7555    -1.1230    -2.6360 H       
  57 H57            3.9300    -2.3119     3.4236 H       
  58 H58            5.3193    -2.0961     2.3321 H       
  59 H59            4.1244    -0.7904     2.5205 H       
@<TRIPOS>BOND
   1    1    2 ar
   2    1    6 ar
   3    2    3 ar
   4    2   14 1
   5    3    4 ar
   6    4    5 ar
   7    4    7 1
   8    5    6 ar
   9    5    9 1
  10    6   32 1
  11    7    8 1
  12    7   16 1
  13    8    9 ar
  14    8   10 ar
  15    9   13 ar
  16   10   11 ar
  17   10   33 1
  18   11   12 ar
  19   12   13 ar
  20   12   34 1
  21   13   35 1
  22   14   15 1
  23   14   36 1
  24   15   17 ar
  25   15   21 ar
  26   16   23 1
  27   16   24 1
  28   16   37 1
  29   17   18 ar
  30   18   19 ar
  31   18   38 1
  32   19   20 ar
  33   19   22 1
  34   20   21 ar
  35   20   39 1
  36   21   40 1
  37   22   25 1
  38   22   29 1
  39   23   31 1
  40   23   41 1
  41   23   42 1
  42   24   30 1
  43   24   43 1
  44   24   44 1
  45   25   26 1
  46   25   45 1
  47   25   46 1
  48   26   27 1
  49   26   47 1
  50   26   48 1
  51   27   28 1
  52   27   49 1
  53   28   29 1
  54   28   50 1
  55   28   51 1
  56   29   52 1
  57   29   53 1
  58   30   54 1
  59   30   55 1
  60   30   56 1
  61   31   57 1
  62   31   58 1
  63   31   59 1

#	End of record

