#	Name: ASD01411039
#	Creating user name:	WinNT
#	Creation time:	15. 06. 2019 19:19

#	Modifying user name:	WinNT
#	Modification time:	15. 06. 2019 19:19

#	Program:	/corina/corina34_cracker 3.40 0067  02.08.2006

@<TRIPOS>MOLECULE
ASD01411039
  36   37    0    0    0
SMALL
NO_CHARGES


@<TRIPOS>ATOM
   1 C1            -0.3387     2.4340    -0.3615 C.2     
   2 S2            -0.1224     0.7799     0.2368 S.3     
   3 C3            -1.8373     0.5463     0.6302 C.2     
   4 C4            -2.4665     1.8181     0.2522 C.2     
   5 N5            -1.6385     2.7257    -0.2378 N.am    
   6 O6            -3.6588     2.0232     0.3843 O.2     
   7 S7             0.8835     3.4646    -0.9739 S.2     
   8 C8            -2.4301    -0.5538     1.1586 C.2     
   9 C9            -1.6609    -1.7945     1.3248 C.ar    
  10 C10           -2.1430     4.0373    -0.6521 C.3     
  11 C11           -2.0744    -2.7594     2.2508 C.ar    
  12 C12           -1.3485    -3.9208     2.4011 C.ar    
  13 C13           -0.2104    -4.1348     1.6380 C.ar    
  14 C14            0.2050    -3.1831     0.7187 C.ar    
  15 C15           -0.5145    -2.0197     0.5538 C.ar    
  16 C16           -2.9879     3.8821    -1.9182 C.3     
  17 C17           -2.1655     3.1738    -2.9965 C.3     
  18 C18           -4.2344     3.0535    -1.6010 C.3     
  19 F19            0.4971    -5.2755     1.7912 F       
  20 C20           -2.9905     4.6202     0.4491 C.2     
  21 O21           -3.1563     4.0035     1.4748 O.2     
  22 O22           -3.5614     5.8247     0.2906 O.3     
  23 H23           -3.4675    -0.5174     1.4569 H       
  24 H24           -1.3033     4.7020    -0.8549 H       
  25 H25           -2.9601    -2.5937     2.8462 H       
  26 H26           -1.6664    -4.6662     3.1151 H       
  27 H27            1.0923    -3.3562     0.1277 H       
  28 H28           -0.1900    -1.2795    -0.1626 H       
  29 H29           -3.2877     4.8664    -2.2778 H       
  30 H30           -1.8657     2.1895    -2.6369 H       
  31 H31           -2.7675     3.0632    -3.8985 H       
  32 H32           -1.2775     3.7641    -3.2225 H       
  33 H33           -4.7080     3.4403    -0.6987 H       
  34 H34           -4.9343     3.1166    -2.4342 H       
  35 H35           -3.9490     2.0133    -1.4442 H       
  36 H36           -4.0961     6.1572     1.0245 H       
@<TRIPOS>BOND
   1    1    2 1
   2    1    7 2
   3    1    5 am
   4    2    3 1
   5    3    4 1
   6    3    8 2
   7    4    5 am
   8    4    6 2
   9    5   10 1
  10    8    9 1
  11    8   23 1
  12    9   11 ar
  13    9   15 ar
  14   10   16 1
  15   10   20 1
  16   10   24 1
  17   11   12 ar
  18   11   25 1
  19   12   13 ar
  20   12   26 1
  21   13   14 ar
  22   13   19 1
  23   14   15 ar
  24   14   27 1
  25   15   28 1
  26   16   17 1
  27   16   18 1
  28   16   29 1
  29   17   30 1
  30   17   31 1
  31   17   32 1
  32   18   33 1
  33   18   34 1
  34   18   35 1
  35   20   21 2
  36   20   22 1
  37   22   36 1

#	End of record

