#	Name: ASD01230628
#	Creating user name:	WinNT
#	Creation time:	15. 06. 2019 19:14

#	Modifying user name:	WinNT
#	Modification time:	15. 06. 2019 19:14

#	Program:	/corina/corina34_cracker 3.40 0067  02.08.2006

@<TRIPOS>MOLECULE
ASD01230628
  47   50    0    0    0
SMALL
NO_CHARGES


@<TRIPOS>ATOM
   1 C1            -0.0166     1.3725     0.0096 C.ar    
   2 C2             0.0021    -0.0041     0.0020 C.ar    
   3 C3             1.1752     2.1027     0.0021 C.ar    
   4 C4             2.3926     1.4226    -0.0131 C.ar    
   5 C5             2.4072     0.0303    -0.0207 C.ar    
   6 C6             1.2067    -0.6817    -0.0131 C.ar    
   7 C7             3.6976    -0.6958    -0.0369 C.2     
   8 C8             4.0749    -1.5263    -1.2002 C.2     
   9 C9             4.5649    -0.6017     1.0298 C.2     
  10 C10            5.7774    -1.3030     0.9833 C.2     
  11 C11            6.0902    -2.0662    -0.0782 C.2     
  12 N12            5.2588    -2.2067    -1.1609 N.pl3   
  13 C13            5.7133    -3.1191    -2.2135 C.3     
  14 C14            5.3044    -2.5957    -3.5933 C.3     
  15 S15            3.4938    -2.4055    -3.5799 S.o2    
  16 N16            3.2276    -1.5306    -2.2004 N.am    
  17 O17            3.0684    -1.5534    -4.6345 O.2     
  18 O18            2.8575    -3.6524    -3.3359 O.2     
  19 C19           -1.1341     2.3875     0.0318 C.3     
  20 C20           -0.4538     3.7363     0.0287 C.2     
  21 C21            0.8530     3.5421     0.0129 C.2     
  22 C22           -2.0128     2.2348    -1.2114 C.3     
  23 C23           -3.2080     3.1847    -1.1110 C.3     
  24 C24           -4.0866     3.0321    -2.3541 C.3     
  25 C25           -5.2818     3.9820    -2.2537 C.3     
  26 H26           -0.9264    -0.5556     0.0083 H       
  27 H27            3.3212     1.9741    -0.0194 H       
  28 H28            1.2190    -1.7616    -0.0190 H       
  29 H29            4.3143     0.0036     1.8884 H       
  30 H30            6.4687    -1.2290     1.8097 H       
  31 H31            7.0362    -2.5872    -0.0806 H       
  32 H32            6.7989    -3.2063    -2.1694 H       
  33 H33            5.2677    -4.1011    -2.0550 H       
  34 H34            5.7778    -1.6317    -3.7801 H       
  35 H35            5.5972    -3.3097    -4.3631 H       
  36 H36           -1.7331     2.2693     0.9348 H       
  37 H37           -0.9505     4.6952     0.0412 H       
  38 H38            1.5884     4.3330     0.0078 H       
  39 H39           -1.4300     2.4768    -2.1002 H       
  40 H40           -2.3701     1.2073    -1.2798 H       
  41 H41           -3.7907     2.9428    -0.2222 H       
  42 H42           -2.8507     4.2122    -1.0425 H       
  43 H43           -3.5039     3.2741    -3.2429 H       
  44 H44           -4.4439     2.0046    -2.4226 H       
  45 H45           -5.8646     3.7400    -1.3649 H       
  46 H46           -4.9245     5.0095    -2.1853 H       
  47 H47           -5.9078     3.8733    -3.1394 H       
@<TRIPOS>BOND
   1    1    2 ar
   2    1    3 ar
   3    1   19 1
   4    2    6 ar
   5    2   26 1
   6    3    4 ar
   7    3   21 1
   8    4    5 ar
   9    4   27 1
  10    5    6 ar
  11    5    7 1
  12    6   28 1
  13    7    8 1
  14    7    9 2
  15    8   12 1
  16    8   16 2
  17    9   10 1
  18    9   29 1
  19   10   11 2
  20   10   30 1
  21   11   12 1
  22   11   31 1
  23   12   13 1
  24   13   14 1
  25   13   32 1
  26   13   33 1
  27   14   15 1
  28   14   34 1
  29   14   35 1
  30   15   16 am
  31   15   17 2
  32   15   18 2
  33   19   20 1
  34   19   22 1
  35   19   36 1
  36   20   21 2
  37   20   37 1
  38   21   38 1
  39   22   23 1
  40   22   39 1
  41   22   40 1
  42   23   24 1
  43   23   41 1
  44   23   42 1
  45   24   25 1
  46   24   43 1
  47   24   44 1
  48   25   45 1
  49   25   46 1
  50   25   47 1

#	End of record

