#	Name: ASD02038103
#	Creating user name:	WinNT
#	Creation time:	15. 06. 2019 20:16

#	Modifying user name:	WinNT
#	Modification time:	15. 06. 2019 20:16

#	Program:	/corina/corina34_cracker 3.40 0067  02.08.2006

@<TRIPOS>MOLECULE
ASD02038103
  50   53    0    0    0
SMALL
NO_CHARGES


@<TRIPOS>ATOM
   1 C1            -0.0167     1.3795     0.0096 C.ar    
   2 C2             0.0021    -0.0041     0.0020 C.ar    
   3 C3             1.1716     2.0905     0.0021 C.ar    
   4 C4             2.3797     1.4188    -0.0135 C.ar    
   5 C5             2.4003     0.0304    -0.0212 C.ar    
   6 C6             1.2064    -0.6798    -0.0127 C.ar    
   7 N7             3.6200    -0.6514    -0.0371 N.3     
   8 N8             5.6074    -2.4103     0.9935 N.3     
   9 C9             5.8171    -0.9558     0.9993 C.3     
  10 C10            4.4634    -0.2483     1.0969 C.3     
  11 C11            6.8896    -3.1270     0.9769 C.3     
  12 C12            6.6391    -4.6145     0.7208 C.3     
  13 C13            7.9746    -5.3609     0.7035 C.3     
  14 O14            5.8111    -5.1436     1.7584 O.3     
  15 O15            7.7519    -6.7274     0.3496 O.3     
  16 C16            8.8441    -7.5350     0.2883 C.ar    
  17 C17            8.6973    -8.8708    -0.0491 C.ar    
  18 C18            9.8109    -9.6935    -0.1114 C.ar    
  19 C19           11.0740    -9.1716     0.1660 C.ar    
  20 C20           11.2157    -7.8345     0.5024 C.ar    
  21 C21           10.1039    -7.0173     0.5584 C.ar    
  22 Cl22          -1.5326     2.2255     0.0214 Cl      
  23 Cl23           1.1441     3.8262     0.0117 Cl      
  24 C24            4.7640    -2.8134    -0.1404 C.3     
  25 C25            3.4103    -2.1059    -0.0428 C.3     
  26 O26            9.9734   -11.0067    -0.4061 O.3     
  27 C27           11.2760   -11.3200    -0.3237 C.2     
  28 N28           11.9803   -10.2246     0.0235 N.am    
  29 O29           11.7476   -12.4216    -0.5307 O.2     
  30 H30           -0.9261    -0.5561     0.0080 H       
  31 H31            3.3065     1.9733    -0.0201 H       
  32 H32            1.2200    -1.7597    -0.0183 H       
  33 H33            6.4337    -0.6807     1.8549 H       
  34 H34            6.3181    -0.6569     0.0785 H       
  35 H35            4.6146     0.8309     1.0721 H       
  36 H36            3.9744    -0.5260     2.0306 H       
  37 H37            7.5212    -2.7234     0.1855 H       
  38 H38            7.3878    -3.0027     1.9383 H       
  39 H39            6.1409    -4.7388    -0.2406 H       
  40 H40            8.6390    -4.9000    -0.0273 H       
  41 H41            8.4313    -5.3114     1.6919 H       
  42 H42            6.1925    -5.0667     2.6436 H       
  43 H43            7.7169    -9.2702    -0.2627 H       
  44 H44           12.1944    -7.4317     0.7174 H       
  45 H45           10.2135    -5.9752     0.8201 H       
  46 H46            5.2530    -2.5357    -1.0742 H       
  47 H47            4.6129    -3.8926    -0.1157 H       
  48 H48            2.9094    -2.4047     0.8779 H       
  49 H49            2.7937    -2.3810    -0.8985 H       
  50 H50           12.9406   -10.1765     0.1510 H       
@<TRIPOS>BOND
   1    1    2 ar
   2    1    3 ar
   3    1   22 1
   4    2    6 ar
   5    2   30 1
   6    3    4 ar
   7    3   23 1
   8    4    5 ar
   9    4   31 1
  10    5    6 ar
  11    5    7 1
  12    6   32 1
  13    7   25 1
  14    7   10 1
  15    8    9 1
  16    8   11 1
  17    8   24 1
  18    9   10 1
  19    9   33 1
  20    9   34 1
  21   10   35 1
  22   10   36 1
  23   11   12 1
  24   11   37 1
  25   11   38 1
  26   12   14 1
  27   12   13 1
  28   12   39 1
  29   13   15 1
  30   13   40 1
  31   13   41 1
  32   14   42 1
  33   15   16 1
  34   16   17 ar
  35   16   21 ar
  36   17   18 ar
  37   17   43 1
  38   18   19 ar
  39   18   26 1
  40   19   20 ar
  41   19   28 1
  42   20   21 ar
  43   20   44 1
  44   21   45 1
  45   24   25 1
  46   24   46 1
  47   24   47 1
  48   25   48 1
  49   25   49 1
  50   26   27 1
  51   27   28 am
  52   27   29 2
  53   28   50 1

#	End of record

