#	Name: ASD03091689
#	Creating user name:	WinNT
#	Creation time:	15. 06. 2019 20:31

#	Modifying user name:	WinNT
#	Modification time:	15. 06. 2019 20:31

#	Program:	/corina/corina34_cracker 3.40 0067  02.08.2006

@<TRIPOS>MOLECULE
ASD03091689
  62   65    0    0    0
SMALL
NO_CHARGES


@<TRIPOS>ATOM
   1 C1            -0.0655     1.3766    -0.2018 C.2     
   2 C2             0.0353     0.0528     0.0400 C.2     
   3 N3            -1.1160    -0.5495     0.2450 N.2     
   4 C4            -2.1856     0.1860     0.1911 C.2     
   5 S5            -1.7718     1.8111    -0.1406 S.3     
   6 N6            -3.4744    -0.2784     0.3810 N.3     
   7 C7            -4.4517     0.8124     0.2528 C.3     
   8 C8            -3.7848    -1.3687    -0.5550 C.3     
   9 C9            -5.1954    -1.8917    -0.2711 C.3     
  10 O10           -6.1277    -0.8116    -0.3696 O.3     
  11 C11           -5.8556     0.2675     0.5286 C.3     
  12 C12           -6.8855     1.3793     0.3183 C.3     
  13 C13           -5.5552    -2.9719    -1.2931 C.3     
  14 C14            1.0563     2.2989    -0.4649 C.ar    
  15 C15            1.0140     3.1963    -1.5404 C.ar    
  16 C16            2.1911     2.3058     0.3572 C.ar    
  17 C17            3.2148     3.1841     0.0749 C.ar    
  18 N18            3.1359     4.0101    -0.9520 N.ar    
  19 C19            2.0836     4.0398    -1.7486 C.ar    
  20 C20            1.3550    -0.6740     0.0724 C.3     
  21 C21            4.4410     3.2023     0.9507 C.3     
  22 N22            1.8278    -0.7664     1.4559 N.am    
  23 C23            2.9963    -1.3800     1.7292 C.2     
  24 C24            3.4826    -1.4750     3.1524 C.3     
  25 O25            3.6564    -1.8556     0.8298 O.2     
  26 C26            2.0540     5.0058    -2.9050 C.3     
  27 C27            2.4578    -2.2410     3.9914 C.3     
  28 C28            4.8225    -2.2129     3.1853 C.3     
  29 C29            5.9851    -1.6015     2.4008 C.3     
  30 C30            5.9795    -1.5435     3.9297 C.3     
  31 H31           -4.2179     1.5970     0.9723 H       
  32 H32           -4.4115     1.2202    -0.7573 H       
  33 H33           -3.7340    -0.9958    -1.5780 H       
  34 H34           -3.0643    -2.1762    -0.4251 H       
  35 H35           -5.2319    -2.3135     0.7333 H       
  36 H36           -5.9113    -0.0915     1.5563 H       
  37 H37           -7.8851     0.9897     0.5111 H       
  38 H38           -6.6776     2.2014     1.0032 H       
  39 H39           -6.8275     1.7387    -0.7091 H       
  40 H40           -4.8421    -3.7930    -1.2202 H       
  41 H41           -6.5595    -3.3438    -1.0905 H       
  42 H42           -5.5202    -2.5484    -2.2969 H       
  43 H43            0.1564     3.2261    -2.1961 H       
  44 H44            2.2622     1.6334     1.1993 H       
  45 H45            1.2278    -1.6766    -0.3359 H       
  46 H46            2.0851    -0.1283    -0.5254 H       
  47 H47            5.1771     2.4998     0.5598 H       
  48 H48            4.8659     4.2060     0.9601 H       
  49 H49            4.1670     2.9142     1.9656 H       
  50 H50            1.2998    -0.3861     2.1753 H       
  51 H51            3.6098    -0.4724     3.5606 H       
  52 H52            2.4834     4.5302    -3.7868 H       
  53 H53            1.0231     5.2926    -3.1125 H       
  54 H54            2.6341     5.8932    -2.6520 H       
  55 H55            2.3306    -3.2437     3.5832 H       
  56 H56            2.8095    -2.3098     5.0208 H       
  57 H57            1.5032    -1.7154     3.9680 H       
  58 H58            4.7595    -3.3003     3.2260 H       
  59 H59            6.6872    -2.2867     1.9257 H       
  60 H60            5.7954    -0.6736     1.8612 H       
  61 H61            5.7861    -0.5775     4.3960 H       
  62 H62            6.6779    -2.1905     4.4604 H       
@<TRIPOS>BOND
   1    1    2 2
   2    1   14 1
   3    1    5 1
   4    2    3 1
   5    2   20 1
   6    3    4 2
   7    4    5 1
   8    4    6 1
   9    6    7 1
  10    6    8 1
  11    7   11 1
  12    7   31 1
  13    7   32 1
  14    8    9 1
  15    8   33 1
  16    8   34 1
  17    9   10 1
  18    9   13 1
  19    9   35 1
  20   10   11 1
  21   11   12 1
  22   11   36 1
  23   12   37 1
  24   12   38 1
  25   12   39 1
  26   13   40 1
  27   13   41 1
  28   13   42 1
  29   14   15 ar
  30   14   16 ar
  31   15   19 ar
  32   15   43 1
  33   16   17 ar
  34   16   44 1
  35   17   18 ar
  36   17   21 1
  37   18   19 ar
  38   19   26 1
  39   20   22 1
  40   20   45 1
  41   20   46 1
  42   21   47 1
  43   21   48 1
  44   21   49 1
  45   22   23 am
  46   22   50 1
  47   23   24 1
  48   23   25 2
  49   24   27 1
  50   24   28 1
  51   24   51 1
  52   26   52 1
  53   26   53 1
  54   26   54 1
  55   27   55 1
  56   27   56 1
  57   27   57 1
  58   28   29 1
  59   28   30 1
  60   28   58 1
  61   29   30 1
  62   29   59 1
  63   29   60 1
  64   30   61 1
  65   30   62 1

#	End of record

