#	Name: ASD01913452
#	Creating user name:	WinNT
#	Creation time:	15. 06. 2019 20:01

#	Modifying user name:	WinNT
#	Modification time:	15. 06. 2019 20:01

#	Program:	/corina/corina34_cracker 3.40 0067  02.08.2006

@<TRIPOS>MOLECULE
ASD01913452
  37   39    0    0    0
SMALL
NO_CHARGES


@<TRIPOS>ATOM
   1 C1             0.8864     0.0721    -1.0322 C.ar    
   2 C2             0.0201    -0.0120     0.0531 C.ar    
   3 C3             0.3616     0.6233     1.2386 C.ar    
   4 N4             1.4894     1.2979     1.3394 N.ar    
   5 C5             2.3322     1.3970     0.3299 C.ar    
   6 C6             2.0613     0.7914    -0.8827 C.ar    
   7 C7            -1.0735    -2.0573    -0.1462 C.ar    
   8 C8            -2.2383    -2.8151    -0.1617 C.ar    
   9 N9            -2.1713    -4.1304    -0.2638 N.ar    
  10 C10           -0.9981    -4.7297    -0.3520 C.ar    
  11 C11            0.1717    -3.9766    -0.3370 C.ar    
  12 N12            0.1067    -2.6553    -0.2345 N.ar    
  13 N13            1.4095    -4.6090    -0.4291 N.am    
  14 C14            2.5362    -3.8749    -0.5192 C.2     
  15 O15           -1.1441    -0.7061    -0.0464 O.3     
  16 C16            3.8364    -4.5411    -0.7440 C.ar    
  17 C17            5.0050    -3.7837    -0.8378 C.ar    
  18 C18            6.2158    -4.4113    -1.0473 C.ar    
  19 C19            6.2738    -5.7882    -1.1649 C.ar    
  20 C20            5.1183    -6.5462    -1.0734 C.ar    
  21 C21            3.9014    -5.9309    -0.8578 C.ar    
  22 O22            2.4832    -2.6650    -0.4155 O.2     
  23 Cl23           5.2012    -8.2738    -1.2229 Cl      
  24 C24            3.6078     2.1811     0.5006 C.3     
  25 F25            3.7216     2.6027     1.8297 F       
  26 F26            4.7004     1.3712     0.1731 F       
  27 F27            3.5854     3.2973    -0.3424 F       
  28 H28            0.6511    -0.4151    -1.9669 H       
  29 H29           -0.3038     0.5647     2.0872 H       
  30 H30            2.7573     0.8778    -1.7040 H       
  31 H31           -3.1995    -2.3281    -0.0897 H       
  32 H32           -0.9464    -5.8052    -0.4354 H       
  33 H33            1.4605    -5.5777    -0.4284 H       
  34 H34            4.9615    -2.7084    -0.7469 H       
  35 H35            7.1205    -3.8259    -1.1200 H       
  36 H36            7.2241    -6.2743    -1.3292 H       
  37 H37            3.0007    -6.5226    -0.7865 H       
@<TRIPOS>BOND
   1    1    2 ar
   2    1    6 ar
   3    1   28 1
   4    2    3 ar
   5    2   15 1
   6    3    4 ar
   7    3   29 1
   8    4    5 ar
   9    5    6 ar
  10    5   24 1
  11    6   30 1
  12    7    8 ar
  13    7   12 ar
  14    7   15 1
  15    8    9 ar
  16    8   31 1
  17    9   10 ar
  18   10   11 ar
  19   10   32 1
  20   11   12 ar
  21   11   13 1
  22   13   14 am
  23   13   33 1
  24   14   16 1
  25   14   22 2
  26   16   17 ar
  27   16   21 ar
  28   17   18 ar
  29   17   34 1
  30   18   19 ar
  31   18   35 1
  32   19   20 ar
  33   19   36 1
  34   20   21 ar
  35   20   23 1
  36   21   37 1
  37   24   25 1
  38   24   26 1
  39   24   27 1

#	End of record

