#	Name: ASD05730139
#	Creating user name:	WinNT
#	Creation time:	15. 06. 2019 21:02

#	Modifying user name:	WinNT
#	Modification time:	15. 06. 2019 21:02

#	Program:	/corina/corina34_cracker 3.40 0067  02.08.2006

@<TRIPOS>MOLECULE
ASD05730139
  80   85    0    0    0
SMALL
NO_CHARGES


@<TRIPOS>ATOM
   1 O1            -0.0088     1.0223     0.8530 O.3     
   2 C2             0.1296    -0.2576     0.4150 C.ar    
   3 C3            -0.8155    -0.8033    -0.4412 C.ar    
   4 C4            -0.6757    -2.1030    -0.8864 C.ar    
   5 C5             0.4117    -2.8636    -0.4771 C.ar    
   6 C6             1.3576    -2.3164     0.3798 C.ar    
   7 C7             1.2189    -1.0150     0.8202 C.ar    
   8 N8             0.5540    -4.1817    -0.9276 N.pl3   
   9 C9             1.8133    -4.7023    -1.1531 C.ar    
  10 N10            1.9271    -5.9845    -1.4644 N.ar    
  11 C11            3.1212    -6.5210    -1.6887 C.ar    
  12 C12            4.2640    -5.6980    -1.5886 C.ar    
  13 C13            4.0904    -4.3460    -1.2559 C.ar    
  14 N14            2.8656    -3.8972    -1.0549 N.ar    
  15 N15            3.2484    -7.8484    -2.0114 N.am    
  16 C16            4.4620    -8.3874    -2.2374 C.2     
  17 C17            5.6675    -7.5617    -2.1413 C.2     
  18 C18            5.5503    -6.2355    -1.8212 C.2     
  19 C19            2.0522    -8.6884    -2.1106 C.3     
  20 O20            4.5572    -9.5678    -2.5228 O.2     
  21 C21            7.0021    -8.1558    -2.3887 C.ar    
  22 C22           -1.2081     1.7073     0.4864 C.3     
  23 C23           -1.4789     2.8355     1.4856 C.3     
  24 C24            7.9363    -8.2331    -1.3563 C.ar    
  25 C25            7.3270    -8.6451    -3.6536 C.ar    
  26 C26            8.5713    -9.1977    -3.8778 C.ar    
  27 C27            9.4956    -9.2672    -2.8508 C.ar    
  28 C28            9.1774    -8.7878    -1.5927 C.ar    
  29 S29           11.0823    -9.9748    -3.1447 S.o     
  30 C30           12.0744    -8.5490    -3.6674 C.3     
  31 O31           11.4930   -10.3881    -1.8487 O.2     
  32 C32           -2.7302     3.6035     1.0536 C.3     
  33 N33           -2.5271     4.1554    -0.2919 N.3     
  34 C34           -2.3123     3.0877    -1.2770 C.3     
  35 C35           -1.0485     2.3043    -0.9146 C.3     
  36 C36           13.4696    -9.0219    -4.0851 C.3     
  37 C37           14.2814    -7.8237    -4.5823 C.3     
  38 N38           13.5936    -7.2038    -5.7220 N.3     
  39 C39           12.2703    -6.6995    -5.3332 C.3     
  40 C40           11.3984    -7.8642    -4.8584 C.3     
  41 C41           14.4111    -6.1359    -6.3129 C.3     
  42 C42            1.5207    -8.6516    -3.5449 C.3     
  43 F43            2.5020    -9.1326    -4.4183 F       
  44 F44            0.3784    -9.4536    -3.6396 F       
  45 F45            1.1958    -7.3348    -3.8881 F       
  46 H46           -1.6611    -0.2117    -0.7595 H       
  47 H47           -1.4120    -2.5280    -1.5525 H       
  48 H48            2.2034    -2.9074     0.6989 H       
  49 H49            1.9545    -0.5892     1.4866 H       
  50 H50           -0.2319    -4.7291    -1.0815 H       
  51 H51            4.9407    -3.6858    -1.1696 H       
  52 H52            6.4276    -5.6103    -1.7455 H       
  53 H53            2.3054    -9.7143    -1.8432 H       
  54 H54            1.2877    -8.3136    -1.4301 H       
  55 H55           -2.0437     1.0074     0.4920 H       
  56 H56           -1.6358     2.4128     2.4779 H       
  57 H57           -0.6257     3.5135     1.5089 H       
  58 H58            7.6890    -7.8591    -0.3737 H       
  59 H59            6.6059    -8.5920    -4.4559 H       
  60 H60            8.8240    -9.5770    -4.8569 H       
  61 H61            9.9031    -8.8449    -0.7948 H       
  62 H62           12.1612    -7.8432    -2.8413 H       
  63 H63           -3.5856     2.9280     1.0438 H       
  64 H64           -2.9176     4.4164     1.7552 H       
  65 H65           -3.3000     4.7455    -0.5611 H       
  66 H66           -3.1696     2.4146    -1.2758 H       
  67 H67           -2.1962     3.5260    -2.2682 H       
  68 H68           -0.1886     2.9740    -0.9290 H       
  69 H69           -0.8980     1.5021    -1.6370 H       
  70 H70           13.9725    -9.4723    -3.2293 H       
  71 H71           13.3803    -9.7578    -4.8842 H       
  72 H72           14.3821    -7.0945    -3.7784 H       
  73 H73           15.2706    -8.1593    -4.8939 H       
  74 H74           12.3804    -5.9756    -4.5259 H       
  75 H75           11.7987    -6.2187    -6.1903 H       
  76 H76           11.2765    -8.5819    -5.6697 H       
  77 H77           10.4216    -7.4875    -4.5552 H       
  78 H78           15.3569    -6.5521    -6.6598 H       
  79 H79           13.8782    -5.6938    -7.1547 H       
  80 H80           14.6049    -5.3693    -5.5626 H       
@<TRIPOS>BOND
   1    1    2 1
   2    1   22 1
   3    2    3 ar
   4    2    7 ar
   5    3    4 ar
   6    3   46 1
   7    4    5 ar
   8    4   47 1
   9    5    6 ar
  10    5    8 1
  11    6    7 ar
  12    6   48 1
  13    7   49 1
  14    8    9 1
  15    8   50 1
  16    9   10 ar
  17    9   14 ar
  18   10   11 ar
  19   11   12 ar
  20   11   15 1
  21   12   13 ar
  22   12   18 1
  23   13   14 ar
  24   13   51 1
  25   15   16 am
  26   15   19 1
  27   16   17 1
  28   16   20 2
  29   17   18 2
  30   17   21 1
  31   18   52 1
  32   19   42 1
  33   19   53 1
  34   19   54 1
  35   21   24 ar
  36   21   25 ar
  37   22   23 1
  38   22   35 1
  39   22   55 1
  40   23   32 1
  41   23   56 1
  42   23   57 1
  43   24   28 ar
  44   24   58 1
  45   25   26 ar
  46   25   59 1
  47   26   27 ar
  48   26   60 1
  49   27   28 ar
  50   27   29 1
  51   28   61 1
  52   29   30 1
  53   29   31 2
  54   30   36 1
  55   30   40 1
  56   30   62 1
  57   32   33 1
  58   32   63 1
  59   32   64 1
  60   33   34 1
  61   33   65 1
  62   34   35 1
  63   34   66 1
  64   34   67 1
  65   35   68 1
  66   35   69 1
  67   36   37 1
  68   36   70 1
  69   36   71 1
  70   37   38 1
  71   37   72 1
  72   37   73 1
  73   38   39 1
  74   38   41 1
  75   39   40 1
  76   39   74 1
  77   39   75 1
  78   40   76 1
  79   40   77 1
  80   41   78 1
  81   41   79 1
  82   41   80 1
  83   42   43 1
  84   42   44 1
  85   42   45 1

#	End of record

