#	Name: ASD03090476
#	Creating user name:	WinNT
#	Creation time:	15. 06. 2019 20:28

#	Modifying user name:	WinNT
#	Modification time:	15. 06. 2019 20:28

#	Program:	/corina/corina34_cracker 3.40 0067  02.08.2006

@<TRIPOS>MOLECULE
ASD03090476
  39   41    0    0    0
SMALL
NO_CHARGES


@<TRIPOS>ATOM
   1 C1            -0.0168     1.3905     0.0097 C.ar    
   2 C2             0.0021    -0.0041     0.0020 C.ar    
   3 C3             1.2193    -0.6609    -0.0132 C.ar    
   4 C4             2.3843     0.1015    -0.0203 C.ar    
   5 C5             2.2880     1.4904    -0.0119 C.ar    
   6 N6             1.1158     2.0836     0.0026 N.ar    
   7 C7            -1.3121     2.1049     0.0197 C.2     
   8 O8            -2.3527     1.4767     0.0212 O.2     
   9 N9            -1.3385     3.4524     0.0271 N.am    
  10 C10           -2.6213     4.1599     0.0370 C.3     
  11 N11           -1.8722     8.6132     2.2579 N.pl3   
  12 C12           -1.6698     9.8539     1.7176 C.2     
  13 C13           -1.6891     9.7781     0.3775 C.2     
  14 C14           -1.9231     8.3741     0.0313 C.ar    
  15 C15           -2.0442     7.6787    -1.1735 C.ar    
  16 C16           -2.2683     6.3311    -1.1592 C.ar    
  17 C17           -2.3749     5.6466     0.0440 C.ar    
  18 C18           -2.2582     6.3128     1.2440 C.ar    
  19 C19           -2.0308     7.6853     1.2531 C.ar    
  20 O20            3.5997    -0.5023    -0.0347 O.3     
  21 C21            4.7471     0.3494    -0.0412 C.3     
  22 C22            6.0163    -0.5050    -0.0574 C.3     
  23 H23           -0.9216    -0.5638     0.0082 H       
  24 H24            1.2649    -1.7399    -0.0191 H       
  25 H25            3.1879     2.0875    -0.0169 H       
  26 H26           -0.5081     3.9537     0.0259 H       
  27 H27           -3.1918     3.8903    -0.8517 H       
  28 H28           -3.1834     3.8806     0.9282 H       
  29 H29           -1.8963     8.4160     3.2073 H       
  30 H30           -1.5173    10.7600     2.2853 H       
  31 H31           -1.5572    10.5970    -0.3142 H       
  32 H32           -1.9624     8.2046    -2.1133 H       
  33 H33           -2.3622     5.7938    -2.0913 H       
  34 H34           -2.3430     5.7715     2.1747 H       
  35 H35            4.7243     0.9830    -0.9278 H       
  36 H36            4.7410     0.9740     0.8521 H       
  37 H37            6.0391    -1.1386     0.8292 H       
  38 H38            6.0224    -1.1296    -0.9506 H       
  39 H39            6.8915     0.1447    -0.0623 H       
@<TRIPOS>BOND
   1    1    2 ar
   2    1    6 ar
   3    1    7 1
   4    2    3 ar
   5    2   23 1
   6    3    4 ar
   7    3   24 1
   8    4    5 ar
   9    4   20 1
  10    5    6 ar
  11    5   25 1
  12    7    8 2
  13    7    9 am
  14    9   10 1
  15    9   26 1
  16   10   17 1
  17   10   27 1
  18   10   28 1
  19   11   12 1
  20   11   19 1
  21   11   29 1
  22   12   13 2
  23   12   30 1
  24   13   14 1
  25   13   31 1
  26   14   15 ar
  27   14   19 ar
  28   15   16 ar
  29   15   32 1
  30   16   17 ar
  31   16   33 1
  32   17   18 ar
  33   18   19 ar
  34   18   34 1
  35   20   21 1
  36   21   22 1
  37   21   35 1
  38   21   36 1
  39   22   37 1
  40   22   38 1
  41   22   39 1

#	End of record

