#	Name: ASD03910031
#	Creating user name:	WinNT
#	Creation time:	15. 06. 2019 20:47

#	Modifying user name:	WinNT
#	Modification time:	15. 06. 2019 20:47

#	Program:	/corina/corina34_cracker 3.40 0067  02.08.2006

@<TRIPOS>MOLECULE
ASD03910031
  62   64    0    0    0
SMALL
NO_CHARGES


@<TRIPOS>ATOM
   1 C1            -0.8917     0.1369    -1.6734 C.ar    
   2 C2             0.1551     0.4786    -0.8370 C.ar    
   3 C3            -0.0129     1.4639     0.1186 C.ar    
   4 C4            -1.2276     2.1097     0.2406 C.ar    
   5 C5            -2.2808     1.7689    -0.5979 C.ar    
   6 C6            -2.1071     0.7832    -1.5606 C.ar    
   7 N7            -3.5128     2.4213    -0.4769 N.am    
   8 C8            -3.5539     3.7285    -0.1513 C.2     
   9 O9            -2.5304     4.3166     0.1273 O.2     
  10 C10           -7.1139     4.1208     0.6158 C.ar    
  11 C11           -7.2700     5.4771     0.8399 C.ar    
  12 C12           -8.5199     5.9855     1.1525 C.ar    
  13 C13           -9.6154     5.1420     1.2389 C.ar    
  14 C14           -9.4600     3.7825     1.0108 C.ar    
  15 C15           -8.2148     3.2747     0.7031 C.ar    
  16 O16          -10.8403     5.6455     1.5472 O.3     
  17 C17          -10.9522     7.0669     1.6429 C.3     
  18 C18          -10.0284     7.5720     2.7211 C.2     
  19 C19           -0.7043    -0.9376    -2.7134 C.3     
  20 C20            1.1306     1.8332     1.0281 C.3     
  21 O21           -9.3444     6.7945     3.3436 O.2     
  22 O22           -9.9654     8.8856     2.9898 O.3     
  23 O23           -5.9037     3.5797     0.3146 O.3     
  24 C24           -4.8717     4.4594    -0.1335 C.3     
  25 C25           -4.7916     5.6453     0.8362 C.3     
  26 C26           -6.1038     6.4283     0.7471 C.3     
  27 C27           -5.1998     4.9643    -1.5401 C.3     
  28 C28           -8.0474     1.7978     0.4547 C.3     
  29 C29          -10.6491     2.8612     1.1023 C.3     
  30 C30          -10.5678     7.7000     0.3041 C.3     
  31 C31          -12.3942     7.4428     1.9895 C.3     
  32 H32            1.1057    -0.0255    -0.9299 H       
  33 H33           -1.3584     2.8787     0.9875 H       
  34 H34           -2.9241     0.5161    -2.2144 H       
  35 H35           -4.3371     1.9327    -0.6273 H       
  36 H36           -8.6409     7.0439     1.3298 H       
  37 H37           -0.9684    -1.9055    -2.2874 H       
  38 H38           -1.3459    -0.7302    -3.5698 H       
  39 H39            0.3370    -0.9542    -3.0351 H       
  40 H40            1.7156     2.6311     0.5707 H       
  41 H41            0.7375     2.1740     1.9859 H       
  42 H42            1.7657     0.9614     1.1855 H       
  43 H43           -9.3583     9.1619     3.6899 H       
  44 H44           -4.6504     5.2794     1.8532 H       
  45 H45           -3.9587     6.2913     0.5587 H       
  46 H46           -6.1447     6.9607    -0.2031 H       
  47 H47           -6.1546     7.1454     1.5664 H       
  48 H48           -5.2651     4.1180    -2.2239 H       
  49 H49           -6.1533     5.4923    -1.5234 H       
  50 H50           -4.4149     5.6423    -1.8750 H       
  51 H51           -8.1942     1.5886    -0.6049 H       
  52 H52           -7.0440     1.4912     0.7500 H       
  53 H53           -8.7830     1.2454     1.0395 H       
  54 H54          -11.1258     2.7851     0.1250 H       
  55 H55          -10.3194     1.8732     1.4237 H       
  56 H56          -11.3622     3.2590     1.8243 H       
  57 H57          -11.3178     7.4480    -0.4456 H       
  58 H58          -10.5156     8.7830     0.4160 H       
  59 H59           -9.5963     7.3201    -0.0119 H       
  60 H60          -12.6944     6.9284     2.9024 H       
  61 H61          -12.4627     8.5201     2.1402 H       
  62 H62          -13.0530     7.1476     1.1728 H       
@<TRIPOS>BOND
   1    1    2 ar
   2    1   19 1
   3    1    6 ar
   4    2    3 ar
   5    2   32 1
   6    3    4 ar
   7    3   20 1
   8    4    5 ar
   9    4   33 1
  10    5    6 ar
  11    5    7 1
  12    6   34 1
  13    7    8 am
  14    7   35 1
  15    8    9 2
  16    8   24 1
  17   10   11 ar
  18   10   23 1
  19   10   15 ar
  20   11   12 ar
  21   11   26 1
  22   12   13 ar
  23   12   36 1
  24   13   14 ar
  25   13   16 1
  26   14   15 ar
  27   14   29 1
  28   15   28 1
  29   16   17 1
  30   17   18 1
  31   17   30 1
  32   17   31 1
  33   18   21 2
  34   18   22 1
  35   19   37 1
  36   19   38 1
  37   19   39 1
  38   20   40 1
  39   20   41 1
  40   20   42 1
  41   22   43 1
  42   23   24 1
  43   24   25 1
  44   24   27 1
  45   25   26 1
  46   25   44 1
  47   25   45 1
  48   26   46 1
  49   26   47 1
  50   27   48 1
  51   27   49 1
  52   27   50 1
  53   28   51 1
  54   28   52 1
  55   28   53 1
  56   29   54 1
  57   29   55 1
  58   29   56 1
  59   30   57 1
  60   30   58 1
  61   30   59 1
  62   31   60 1
  63   31   61 1
  64   31   62 1

#	End of record

