#	Name: ASD01209255
#	Creating user name:	WinNT
#	Creation time:	15. 06. 2019 19:11

#	Modifying user name:	WinNT
#	Modification time:	15. 06. 2019 19:11

#	Program:	/corina/corina34_cracker 3.40 0067  02.08.2006

@<TRIPOS>MOLECULE
ASD01209255
  67   69    0    0    0
SMALL
NO_CHARGES


@<TRIPOS>ATOM
   1 O1            -1.7666     1.7003    -0.1932 O.3     
   2 O2             0.2691     1.9523     1.4514 O.3     
   3 C3            -0.2284     5.4960    -6.0383 C.2     
   4 N4             0.3734     5.1959    -4.8703 N.am    
   5 O5            -1.4386     5.4849    -6.1174 O.2     
   6 C6            -0.3920     4.9682    -3.7323 C.2     
   7 P7            -0.2945     2.3258    -0.0098 P.3     
   8 O8             0.6090     1.7724    -1.0432 O.2     
   9 C9            -0.3784     4.1385    -0.1837 C.3     
  10 N10            0.0849     4.6740    -2.5638 N.2     
  11 S11           -2.0989     5.0429    -3.6694 S.3     
  12 C12           -2.0643     4.6377    -1.9553 C.2     
  13 C13           -0.7883     4.4898    -1.5907 C.2     
  14 C14            0.5496     0.6114     1.8580 C.3     
  15 C15            1.0678     0.6129     3.2976 C.3     
  16 C16           -2.0173     0.2937    -0.2158 C.3     
  17 C17           -3.5152     0.0456    -0.4050 C.3     
  18 Br18          -3.5705     4.4518    -0.8272 Br      
  19 C19            0.6024     5.8453    -7.2461 C.3     
  20 C20            1.3458     7.1581    -6.9914 C.3     
  21 C21           -0.2961     6.0015    -8.4458 C.ar    
  22 C22           -0.1205     5.1903    -9.5512 C.ar    
  23 C23           -1.2996     6.9522    -8.4386 C.ar    
  24 C24           -2.1239     7.0955    -9.5391 C.ar    
  25 C25           -1.9443     6.2885   -10.6469 C.ar    
  26 C26           -0.9447     5.3337   -10.6517 C.ar    
  27 S27           -2.9953     6.4707   -12.0493 S.o2    
  28 O28           -2.9755     5.1928   -12.6705 O.2     
  29 O29           -4.1986     7.0084   -11.5180 O.2     
  30 C30           -2.1546     7.6968   -13.0887 C.3     
  31 C31            2.2772     7.4535    -8.1687 C.3     
  32 C32            2.9419     8.8288    -7.9828 C.3     
  33 C33            4.4629     8.5785    -7.9215 C.3     
  34 C34            4.6562     7.2311    -8.6606 C.3     
  35 C35            3.4175     6.4155    -8.2139 C.3     
  36 H36            1.3406     5.1387    -4.8237 H       
  37 H37           -1.1106     4.5374     0.5184 H       
  38 H38            0.6001     4.5695     0.0280 H       
  39 H39           -0.3617     0.0162     1.8006 H       
  40 H40            1.3056     0.1829     1.2001 H       
  41 H41            1.2818    -0.4099     3.6078 H       
  42 H42            1.9791     1.2082     3.3551 H       
  43 H43            0.3118     1.0415     3.9555 H       
  44 H44           -1.4669    -0.1604    -1.0398 H       
  45 H45           -1.6919    -0.1485     0.7259 H       
  46 H46           -3.8406     0.4877    -1.3466 H       
  47 H47           -3.7064    -1.0274    -0.4222 H       
  48 H48           -4.0656     0.4996     0.4190 H       
  49 H49            1.3236     5.0498    -7.4335 H       
  50 H50            0.6253     7.9691    -6.8857 H       
  51 H51            1.9325     7.0718    -6.0768 H       
  52 H52            0.6609     4.4448    -9.5553 H       
  53 H53           -1.4399     7.5828    -7.5731 H       
  54 H54           -2.9084     7.8378    -9.5332 H       
  55 H55           -0.8044     4.7031   -11.5172 H       
  56 H56           -1.1683     7.3239   -13.3650 H       
  57 H57           -2.7419     7.8732   -13.9899 H       
  58 H58           -2.0483     8.6302   -12.5359 H       
  59 H59            1.7157     7.4334    -9.1028 H       
  60 H60            2.7037     9.4758    -8.8270 H       
  61 H61            2.6009     9.2857    -7.0538 H       
  62 H62            5.0016     9.3754    -8.4341 H       
  63 H63            4.7946     8.4968    -6.8864 H       
  64 H64            4.6525     7.3789    -9.7405 H       
  65 H65            5.5763     6.7429    -8.3396 H       
  66 H66            3.5804     5.9845    -7.2261 H       
  67 H67            3.1933     5.6339    -8.9399 H       
@<TRIPOS>BOND
   1    1   16 1
   2    1    7 1
   3    2   14 1
   4    2    7 1
   5    3    4 am
   6    3    5 2
   7    3   19 1
   8    4    6 1
   9    4   36 1
  10    6   10 2
  11    6   11 1
  12    7    8 2
  13    7    9 1
  14    9   13 1
  15    9   37 1
  16    9   38 1
  17   10   13 1
  18   11   12 1
  19   12   13 2
  20   12   18 1
  21   14   15 1
  22   14   39 1
  23   14   40 1
  24   15   41 1
  25   15   42 1
  26   15   43 1
  27   16   17 1
  28   16   44 1
  29   16   45 1
  30   17   46 1
  31   17   47 1
  32   17   48 1
  33   19   20 1
  34   19   21 1
  35   19   49 1
  36   20   31 1
  37   20   50 1
  38   20   51 1
  39   21   22 ar
  40   21   23 ar
  41   22   26 ar
  42   22   52 1
  43   23   24 ar
  44   23   53 1
  45   24   25 ar
  46   24   54 1
  47   25   26 ar
  48   25   27 1
  49   26   55 1
  50   27   28 2
  51   27   29 2
  52   27   30 1
  53   30   56 1
  54   30   57 1
  55   30   58 1
  56   31   32 1
  57   31   35 1
  58   31   59 1
  59   32   33 1
  60   32   60 1
  61   32   61 1
  62   33   34 1
  63   33   62 1
  64   33   63 1
  65   34   35 1
  66   34   64 1
  67   34   65 1
  68   35   66 1
  69   35   67 1

#	End of record

