#	Name: ASD01410720
#	Creating user name:	WinNT
#	Creation time:	15. 06. 2019 19:18

#	Modifying user name:	WinNT
#	Modification time:	15. 06. 2019 19:18

#	Program:	/corina/corina34_cracker 3.40 0067  02.08.2006

@<TRIPOS>MOLECULE
ASD01410720
  82   87    0    0    0
SMALL
NO_CHARGES


@<TRIPOS>ATOM
   1 N1            -0.0203     1.6483     0.0111 N.am    
   2 N2            -2.6982     2.0856    -2.0012 N.3     
   3 N3            -2.9031     1.1758    -5.0663 N.am    
   4 S4             0.0021    -0.0041     0.0020 S.o2    
   5 O5            -0.2592    -0.4127    -1.3302 O.2     
   6 N6             1.5427    -0.5110     0.3934 N.am    
   7 O7            -0.8304    -0.4059     1.0921 O.2     
   8 C8             2.5303    -0.5037    -0.5080 C.2     
   9 O9             3.6115    -0.8359    -0.0016 O.2     
  10 C10            2.6628    -0.2338    -1.9219 C.ar    
  11 C11            3.8681     0.4119    -2.2832 C.ar    
  12 C12            4.1441     0.8002    -3.5558 C.ar    
  13 C13            3.1614     0.5369    -4.5224 C.ar    
  14 C14            1.9879    -0.1928    -4.2081 C.ar    
  15 C15            1.7392    -0.6109    -2.9020 C.ar    
  16 C16            3.0736     0.8997    -5.8733 C.2     
  17 C17            1.9251     0.3844    -6.3823 C.2     
  18 N18            1.2785    -0.3132    -5.3728 N.pl3   
  19 C19            4.0965     1.7521    -6.5848 C.3     
  20 C20            4.1899     3.1163    -5.8984 C.3     
  21 C21            5.4606     1.0611    -6.5337 C.3     
  22 C22            6.4973     1.9250    -7.2548 C.3     
  23 C23            6.5906     3.2892    -6.5683 C.3     
  24 C24            5.2265     3.9802    -6.6194 C.3     
  25 C25            1.4306     0.5482    -7.7631 C.ar    
  26 C26            0.0758     0.7003    -8.0739 C.ar    
  27 C27           -0.9893     0.5784    -7.0946 C.2     
  28 C28           -1.0574    -0.1262    -5.9964 C.2     
  29 C29            0.0279    -1.0575    -5.5412 C.3     
  30 C30           -2.2239     0.0063    -5.1229 C.2     
  31 O31           -2.5980    -0.9591    -4.4751 O.2     
  32 C32            2.3665     0.5040    -8.8077 C.ar    
  33 C33            1.9826     0.7265   -10.1101 C.ar    
  34 C34            0.6469     0.9731   -10.4102 C.ar    
  35 C35           -0.3003     0.9524    -9.4081 C.ar    
  36 O36            0.2755     1.2362   -11.6895 O.3     
  37 C37            1.3089     1.2437   -12.6765 C.3     
  38 C38           -3.3410     0.9005    -2.6663 C.3     
  39 C39           -3.9265     1.3123    -4.0093 C.3     
  40 C40           -2.3937     1.5773    -0.6233 C.3     
  41 C41           -1.2880     2.3832     0.0364 C.3     
  42 C42            1.2375     2.4007     0.0031 C.3     
  43 C43           -1.3709     2.2214    -2.6924 C.3     
  44 H44           -2.7280     1.9005    -5.6947 H       
  45 H45            1.7327    -0.8253     1.3115 H       
  46 H46            4.6013     0.6034    -1.5128 H       
  47 H47            5.0757     1.2847    -3.8092 H       
  48 H48            0.8874    -1.2352    -2.6785 H       
  49 H49            3.7968     1.8880    -7.6239 H       
  50 H50            3.2181     3.6086    -5.9348 H       
  51 H51            4.4896     2.9804    -4.8592 H       
  52 H52            5.7604     0.9252    -5.4946 H       
  53 H53            5.3941     0.0892    -7.0228 H       
  54 H54            7.4691     1.4327    -7.2184 H       
  55 H55            6.1975     2.0609    -8.2939 H       
  56 H56            6.8904     3.1533    -5.5292 H       
  57 H57            7.3292     3.9046    -7.0820 H       
  58 H58            4.9268     4.1161    -7.6585 H       
  59 H59            5.2930     4.9521    -6.1304 H       
  60 H60           -1.8673     1.1644    -7.3155 H       
  61 H61            0.1680    -1.8376    -6.2886 H       
  62 H62           -0.2581    -1.5074    -4.5920 H       
  63 H63            3.3991     0.2588    -8.6076 H       
  64 H64            2.7200     0.7085   -10.8992 H       
  65 H65           -1.3376     1.1333    -9.6490 H       
  66 H66            1.7899     0.2661   -12.7063 H       
  67 H67            0.8775     1.4664   -13.6525 H       
  68 H68            2.0474     2.0044   -12.4236 H       
  69 H69           -2.5756     0.1431    -2.7800 H       
  70 H70           -4.1293     0.5477    -2.0043 H       
  71 H71           -4.2694     2.3492    -3.9656 H       
  72 H72           -4.7809     0.6728    -4.2505 H       
  73 H73           -3.3150     1.6650    -0.0407 H       
  74 H74           -2.1274     0.5294    -0.7091 H       
  75 H75           -1.5563     2.5501     1.0930 H       
  76 H76           -1.1684     3.3616    -0.4191 H       
  77 H77            2.0768     1.7052    -0.0086 H       
  78 H78            1.2771     3.0329    -0.8839 H       
  79 H79            1.2941     3.0233     0.8960 H       
  80 H80           -1.5288     2.3173    -3.7666 H       
  81 H81           -0.8565     3.1074    -2.3202 H       
  82 H82           -0.7647     1.3381    -2.4916 H       
@<TRIPOS>BOND
   1    1    4 am
   2    1   42 1
   3    1   41 1
   4    2   38 1
   5    2   40 1
   6    2   43 1
   7    3   30 am
   8    3   39 1
   9    3   44 1
  10    4    5 2
  11    4    6 am
  12    4    7 2
  13    6    8 am
  14    6   45 1
  15    8    9 2
  16    8   10 1
  17   10   11 ar
  18   10   15 ar
  19   11   12 ar
  20   11   46 1
  21   12   13 ar
  22   12   47 1
  23   13   14 ar
  24   13   16 1
  25   14   15 ar
  26   14   18 1
  27   15   48 1
  28   16   17 2
  29   16   19 1
  30   17   18 1
  31   17   25 1
  32   18   29 1
  33   19   20 1
  34   19   21 1
  35   19   49 1
  36   20   24 1
  37   20   50 1
  38   20   51 1
  39   21   22 1
  40   21   52 1
  41   21   53 1
  42   22   23 1
  43   22   54 1
  44   22   55 1
  45   23   24 1
  46   23   56 1
  47   23   57 1
  48   24   58 1
  49   24   59 1
  50   25   26 ar
  51   25   32 ar
  52   26   27 1
  53   26   35 ar
  54   27   28 2
  55   27   60 1
  56   28   29 1
  57   28   30 1
  58   29   61 1
  59   29   62 1
  60   30   31 2
  61   32   33 ar
  62   32   63 1
  63   33   34 ar
  64   33   64 1
  65   34   35 ar
  66   34   36 1
  67   35   65 1
  68   36   37 1
  69   37   66 1
  70   37   67 1
  71   37   68 1
  72   38   39 1
  73   38   69 1
  74   38   70 1
  75   39   71 1
  76   39   72 1
  77   40   41 1
  78   40   73 1
  79   40   74 1
  80   41   75 1
  81   41   76 1
  82   42   77 1
  83   42   78 1
  84   42   79 1
  85   43   80 1
  86   43   81 1
  87   43   82 1

#	End of record

