#	Name: ASD01913229
#	Creating user name:	WinNT
#	Creation time:	15. 06. 2019 20:01

#	Modifying user name:	WinNT
#	Modification time:	15. 06. 2019 20:01

#	Program:	/corina/corina34_cracker 3.40 0067  02.08.2006

@<TRIPOS>MOLECULE
ASD01913229
  41   44    0    0    0
SMALL
NO_CHARGES


@<TRIPOS>ATOM
   1 C1             0.5072     0.8783     1.0120 C.3     
   2 C2             1.0629    -0.4641     1.4247 C.2     
   3 C3             2.2999    -0.8958     1.0979 C.2     
   4 C4             3.2993    -0.1115     0.2888 C.3     
   5 C5             2.5621     1.0088    -0.4563 C.3     
   6 N6             1.6272     1.6671     0.4678 N.am    
   7 C7             1.2866    -2.4272     2.2790 C.2     
   8 N8             0.4677    -1.4164     2.1461 N.2     
   9 N9             2.4417    -2.1391     1.6362 N.pl3   
  10 C10            1.7901     2.9608     0.8087 C.2     
  11 O11            2.7768     3.5670     0.4393 O.2     
  12 C12            0.7689     3.6425     1.6316 C.ar    
  13 C13            1.1527     4.6021     2.5662 C.ar    
  14 C14            0.1832     5.2410     3.3384 C.ar    
  15 C15           -1.1676     4.9141     3.1692 C.ar    
  16 C16           -1.5389     3.9609     2.2402 C.ar    
  17 C17           -0.5831     3.3299     1.4695 C.ar    
  18 C18            0.5680     6.2281     4.3017 C.1     
  19 C19            0.8835     7.0374     5.0915 C.1     
  20 C20            1.2684     8.0245     6.0549 C.ar    
  21 C21            0.2909     8.6605     6.8250 C.ar    
  22 C22            0.6794     9.6110     7.7512 C.ar    
  23 C23            2.0320     9.8977     7.8803 C.ar    
  24 C24            2.9470     9.2309     7.0863 C.ar    
  25 N25            2.5536     8.3255     6.2142 N.ar    
  26 Cl26          -2.3779     5.7072     4.1284 Cl      
  27 H27           -0.2579     0.7438     0.2473 H       
  28 H28            0.0822     1.3859     1.8779 H       
  29 H29            4.0473     0.3219     0.9528 H       
  30 H30            3.7848    -0.7709    -0.4306 H       
  31 H31            3.2839     1.7375    -0.8252 H       
  32 H32            2.0084     0.5860    -1.2945 H       
  33 H33            1.0757    -3.3413     2.8141 H       
  34 H34            3.2231    -2.7101     1.5707 H       
  35 H35            2.1963     4.8496     2.6923 H       
  36 H36           -2.5820     3.7114     2.1136 H       
  37 H37           -0.8810     2.5892     0.7423 H       
  38 H38           -0.7528     8.4134     6.6984 H       
  39 H39           -0.0531    10.1196     8.3604 H       
  40 H40            2.3665    10.6355     8.5946 H       
  41 H41            3.9992     9.4530     7.1852 H       
@<TRIPOS>BOND
   1    1    2 1
   2    1    6 1
   3    1   27 1
   4    1   28 1
   5    2    3 2
   6    2    8 1
   7    3    4 1
   8    3    9 1
   9    4    5 1
  10    4   29 1
  11    4   30 1
  12    5    6 1
  13    5   31 1
  14    5   32 1
  15    6   10 am
  16    7    8 2
  17    7    9 1
  18    7   33 1
  19    9   34 1
  20   10   11 2
  21   10   12 1
  22   12   13 ar
  23   12   17 ar
  24   13   14 ar
  25   13   35 1
  26   14   15 ar
  27   14   18 1
  28   15   16 ar
  29   15   26 1
  30   16   17 ar
  31   16   36 1
  32   17   37 1
  33   18   19 3
  34   19   20 1
  35   20   21 ar
  36   20   25 ar
  37   21   22 ar
  38   21   38 1
  39   22   23 ar
  40   22   39 1
  41   23   24 ar
  42   23   40 1
  43   24   25 ar
  44   24   41 1

#	End of record

