#	Name: ASD01140288
#	Creating user name:	WinNT
#	Creation time:	15. 06. 2019 19:00

#	Modifying user name:	WinNT
#	Modification time:	15. 06. 2019 19:00

#	Program:	/corina/corina34_cracker 3.40 0067  02.08.2006

@<TRIPOS>MOLECULE
ASD01140288
  46   49    0    0    0
SMALL
NO_CHARGES


@<TRIPOS>ATOM
   1 C1            -1.1119     1.1600    -0.1272 C.ar    
   2 C2            -1.0855    -0.2278     0.0366 C.ar    
   3 C3             0.1350    -0.8905     0.1680 C.ar    
   4 C4             1.3124    -0.1609     0.1334 C.ar    
   5 C5             1.2827     1.2318    -0.0703 C.ar    
   6 C6             0.0617     1.8816    -0.1792 C.ar    
   7 C7             2.6332    -0.8204     0.3449 C.2     
   8 N8             3.5414    -0.6607    -0.5528 N.2     
   9 C9             3.4140     0.2341    -1.6983 C.3     
  10 C10            3.5195     1.6802    -1.2311 C.3     
  11 N11            2.4799     1.9043    -0.1963 N.pl3   
  12 C12            3.0378     2.7624     0.7152 C.2     
  13 C13            4.8090     2.0282    -0.4935 C.3     
  14 N14            4.3192     2.8489     0.6314 N.2     
  15 C15            2.8923    -1.6365     1.5539 C.ar    
  16 C16            4.0619    -2.3898     1.6528 C.ar    
  17 C17            1.9702    -1.6501     2.6003 C.ar    
  18 C18            2.2170    -2.4122     3.7237 C.ar    
  19 C19            3.3763    -3.1618     3.8135 C.ar    
  20 C20            4.2975    -3.1479     2.7813 C.ar    
  21 C21           -2.3104    -0.9688     0.0698 C.1     
  22 C22           -3.3146    -1.5763     0.0971 C.1     
  23 C23            5.4911     0.7821     0.0098 C.2     
  24 O24            5.2935     0.3992     1.1386 O.2     
  25 O25            6.3181     0.0978    -0.7960 O.3     
  26 C26            7.0294    -1.0247    -0.2108 C.3     
  27 C27            8.0115    -1.5963    -1.2352 C.3     
  28 F28            8.9275    -0.6060    -1.6060 F       
  29 F29            8.6968    -2.6778    -0.6713 F       
  30 F30            7.3084    -2.0277    -2.3651 F       
  31 H31           -2.0592     1.6708    -0.2181 H       
  32 H32            0.1618    -1.9625     0.2960 H       
  33 H33            0.0305     2.9538    -0.3050 H       
  34 H34            4.2100     0.0245    -2.4128 H       
  35 H35            2.4471     0.0766    -2.1761 H       
  36 H36            3.3613     2.3558    -2.0717 H       
  37 H37            2.4555     3.3154     1.4373 H       
  38 H38            5.4770     2.6057    -1.1324 H       
  39 H39            4.7815    -2.3800     0.8475 H       
  40 H40            1.0650    -1.0650     2.5314 H       
  41 H41            1.5039    -2.4233     4.5347 H       
  42 H42            3.5652    -3.7568     4.6948 H       
  43 H43            5.2007    -3.7351     2.8572 H       
  44 H44           -4.2128    -2.1197     0.1214 H       
  45 H45            7.5772    -0.6886     0.6696 H       
  46 H46            6.3157    -1.7963     0.0781 H       
@<TRIPOS>BOND
   1    1    2 ar
   2    1    6 ar
   3    1   31 1
   4    2    3 ar
   5    2   21 1
   6    3    4 ar
   7    3   32 1
   8    4    5 ar
   9    4    7 1
  10    5    6 ar
  11    5   11 1
  12    6   33 1
  13    7    8 2
  14    7   15 1
  15    8    9 1
  16    9   10 1
  17    9   34 1
  18    9   35 1
  19   10   11 1
  20   10   13 1
  21   10   36 1
  22   11   12 1
  23   12   14 2
  24   12   37 1
  25   13   14 1
  26   13   23 1
  27   13   38 1
  28   15   16 ar
  29   15   17 ar
  30   16   20 ar
  31   16   39 1
  32   17   18 ar
  33   17   40 1
  34   18   19 ar
  35   18   41 1
  36   19   20 ar
  37   19   42 1
  38   20   43 1
  39   21   22 3
  40   22   44 1
  41   23   24 2
  42   23   25 1
  43   25   26 1
  44   26   27 1
  45   26   45 1
  46   26   46 1
  47   27   28 1
  48   27   29 1
  49   27   30 1

#	End of record

