#	Name: ASD01901017
#	Creating user name:	WinNT
#	Creation time:	15. 06. 2019 19:53

#	Modifying user name:	WinNT
#	Modification time:	15. 06. 2019 19:53

#	Program:	/corina/corina34_cracker 3.40 0067  02.08.2006

@<TRIPOS>MOLECULE
ASD01901017
  27   28    0    0    0
SMALL
NO_CHARGES


@<TRIPOS>ATOM
   1 C1            -0.0168     1.3883     0.0097 C.ar    
   2 C2             0.0021    -0.0041     0.0020 C.ar    
   3 C3             1.2179    -0.6668    -0.0132 C.ar    
   4 C4             2.3828     0.0832    -0.0203 C.ar    
   5 C5             2.2959     1.4759    -0.0120 C.ar    
   6 N6             1.1102     2.0799     0.0026 N.ar    
   7 N7            -1.2342     2.0588     0.0191 N.pl3   
   8 C8             3.5273     2.2845    -0.0195 C.2     
   9 C9             3.4503     3.6252    -0.0116 C.2     
  10 C10            4.6821     4.4341    -0.0190 C.ar    
  11 C11            4.6059     5.8294    -0.0108 C.ar    
  12 C12            5.7631     6.5798    -0.0174 C.ar    
  13 C13            6.9974     5.9543    -0.0326 C.ar    
  14 C14            7.0807     4.5730    -0.0408 C.ar    
  15 C15            5.9322     3.8095    -0.0285 C.ar    
  16 H16           -0.9227    -0.5618     0.0082 H       
  17 H17            1.2573    -1.7461    -0.0190 H       
  18 H18            3.3464    -0.4043    -0.0318 H       
  19 H19           -2.0643     1.5569     0.0203 H       
  20 H20           -1.2537     3.0286     0.0244 H       
  21 H21            4.4919     1.7990    -0.0313 H       
  22 H22            2.4856     4.1106     0.0003 H       
  23 H23            3.6433     6.3190     0.0003 H       
  24 H24            5.7058     7.6583    -0.0110 H       
  25 H25            7.9001     6.5471    -0.0384 H       
  26 H26            8.0474     4.0917    -0.0530 H       
  27 H27            5.9987     2.7315    -0.0308 H       
@<TRIPOS>BOND
   1    1    2 ar
   2    1    6 ar
   3    1    7 1
   4    2    3 ar
   5    2   16 1
   6    3    4 ar
   7    3   17 1
   8    4    5 ar
   9    4   18 1
  10    5    6 ar
  11    5    8 1
  12    7   19 1
  13    7   20 1
  14    8    9 2
  15    8   21 1
  16    9   10 1
  17    9   22 1
  18   10   11 ar
  19   10   15 ar
  20   11   12 ar
  21   11   23 1
  22   12   13 ar
  23   12   24 1
  24   13   14 ar
  25   13   25 1
  26   14   15 ar
  27   14   26 1
  28   15   27 1

#	End of record

