#	Name: ASD01900973
#	Creating user name:	WinNT
#	Creation time:	15. 06. 2019 19:52

#	Modifying user name:	WinNT
#	Modification time:	15. 06. 2019 19:52

#	Program:	/corina/corina34_cracker 3.40 0067  02.08.2006

@<TRIPOS>MOLECULE
ASD01900973
  58   62    0    0    0
SMALL
NO_CHARGES


@<TRIPOS>ATOM
   1 C1             0.1677     0.8480    -0.4091 C.ar    
   2 C2             0.3441    -0.5197    -0.4405 C.ar    
   3 C3             1.6173    -1.0631    -0.5122 C.ar    
   4 C4             2.7294    -0.2441    -0.5477 C.ar    
   5 C5             2.5699     1.1310    -0.5146 C.ar    
   6 C6             1.2794     1.6858    -0.4514 C.ar    
   7 N7             3.6591     1.9949    -0.5324 N.pl3   
   8 C8             3.4894     3.3353    -1.1042 C.3     
   9 N9             2.2260     3.9220    -0.6555 N.am    
  10 C10            1.1443     3.1526    -0.4212 C.2     
  11 C11            2.1396     5.3068    -0.4653 C.ar    
  12 C12            1.4948     6.0983    -1.4066 C.ar    
  13 C13            1.4100     7.4636    -1.2185 C.ar    
  14 C14            1.9687     8.0446    -0.0894 C.ar    
  15 C15            2.6129     7.2545     0.8514 C.ar    
  16 C16            2.6936     5.8883     0.6674 C.ar    
  17 O17            0.0663     3.6646    -0.1870 O.2     
  18 O18            1.8851     9.3892     0.0950 O.3     
  19 C19            4.6515     4.2273    -0.6573 C.3     
  20 C20            3.4920     3.2380    -2.6325 C.3     
  21 C21            3.3820     4.6438    -3.2274 C.3     
  22 N22            4.5128     5.4610    -2.7690 N.3     
  23 C23            4.5074     5.6051    -1.3078 C.3     
  24 C24            4.5144     6.7741    -3.4276 C.3     
  25 C25            5.6338     7.6146    -2.8694 C.ar    
  26 C26            6.9165     7.4728    -3.3639 C.ar    
  27 C27            7.9458     8.2446    -2.8518 C.ar    
  28 C28            7.6896     9.1587    -1.8444 C.ar    
  29 C29            6.4044     9.3002    -1.3501 C.ar    
  30 C30            5.3757     8.5307    -1.8672 C.ar    
  31 C31            2.4824     9.9199     1.2797 C.3     
  32 F32            6.1528    10.1920    -0.3670 F       
  33 F33            9.1998     8.1052    -3.3348 F       
  34 H34           -0.8265     1.2666    -0.3565 H       
  35 H35           -0.5161    -1.1719    -0.4086 H       
  36 H36            1.7409    -2.1357    -0.5403 H       
  37 H37            3.7185    -0.6744    -0.6006 H       
  38 H38            4.5159     1.7164    -0.1729 H       
  39 H39            1.0601     5.6462    -2.2859 H       
  40 H40            0.9088     8.0794    -1.9506 H       
  41 H41            3.0477     7.7075     1.7301 H       
  42 H42            3.1913     5.2728     1.4021 H       
  43 H43            4.6331     4.3330     0.4274 H       
  44 H44            5.5953     3.7766    -0.9642 H       
  45 H45            4.4198     2.7731    -2.9661 H       
  46 H46            2.6442     2.6365    -2.9604 H       
  47 H47            3.3976     4.5799    -4.3154 H       
  48 H48            2.4477     5.1028    -2.9041 H       
  49 H49            3.5688     6.0599    -0.9912 H       
  50 H50            5.3394     6.2397    -1.0024 H       
  51 H51            4.6588     6.6426    -4.4999 H       
  52 H52            3.5616     7.2720    -3.2476 H       
  53 H53            7.1162     6.7596    -4.1499 H       
  54 H54            8.4918     9.7608    -1.4441 H       
  55 H55            4.3721     8.6438    -1.4846 H       
  56 H56            2.0106     9.4743     2.1555 H       
  57 H57            3.5477     9.6893     1.2842 H       
  58 H58            2.3446    11.0009     1.3032 H       
@<TRIPOS>BOND
   1    1    2 ar
   2    1    6 ar
   3    1   34 1
   4    2    3 ar
   5    2   35 1
   6    3    4 ar
   7    3   36 1
   8    4    5 ar
   9    4   37 1
  10    5    7 1
  11    5    6 ar
  12    6   10 1
  13    7    8 1
  14    7   38 1
  15    8    9 1
  16    8   20 1
  17    8   19 1
  18    9   10 am
  19    9   11 1
  20   10   17 2
  21   11   12 ar
  22   11   16 ar
  23   12   13 ar
  24   12   39 1
  25   13   14 ar
  26   13   40 1
  27   14   15 ar
  28   14   18 1
  29   15   16 ar
  30   15   41 1
  31   16   42 1
  32   18   31 1
  33   19   23 1
  34   19   43 1
  35   19   44 1
  36   20   21 1
  37   20   45 1
  38   20   46 1
  39   21   22 1
  40   21   47 1
  41   21   48 1
  42   22   23 1
  43   22   24 1
  44   23   49 1
  45   23   50 1
  46   24   25 1
  47   24   51 1
  48   24   52 1
  49   25   26 ar
  50   25   30 ar
  51   26   27 ar
  52   26   53 1
  53   27   28 ar
  54   27   33 1
  55   28   29 ar
  56   28   54 1
  57   29   30 ar
  58   29   32 1
  59   30   55 1
  60   31   56 1
  61   31   57 1
  62   31   58 1

#	End of record

