#	Name: ASD01811000
#	Creating user name:	WinNT
#	Creation time:	15. 06. 2019 19:25

#	Modifying user name:	WinNT
#	Modification time:	15. 06. 2019 19:25

#	Program:	/corina/corina34_cracker 3.40 0067  02.08.2006

@<TRIPOS>MOLECULE
ASD01811000
  35   35    0    0    0
SMALL
NO_CHARGES


@<TRIPOS>ATOM
   1 N1            -0.1398     1.4200    -0.2192 N.am    
   2 N2            -0.0550     0.0570     0.0938 N.2     
   3 C3             1.1408    -2.0644     0.1432 C.3     
   4 C4             1.0531    -0.5662    -0.0556 C.2     
   5 C5             2.3203     0.1707    -0.4378 C.3     
   6 C6             3.4356    -0.2804     0.5146 C.3     
   7 C7             3.4963    -1.8099     0.5229 C.3     
   8 O8             2.2575    -2.3417     0.9951 O.3     
   9 C9            -0.1453    -2.5738     0.7971 C.3     
  10 C10           -0.0125     1.8270    -1.4978 C.2     
  11 O11            0.2700     1.0189    -2.3716 O.co2   
  12 O12           -0.1794     3.0044    -1.7843 O.co2   
  13 C13           -0.3729     2.4022     0.8424 C.3     
  14 C14           -0.4857     1.6822     2.1876 C.3     
  15 C15            0.7948     3.3898     0.8889 C.3     
  16 C16           -1.6712     3.1606     0.5594 C.3     
  17 H17            1.2829    -2.5550    -0.8198 H       
  18 H18            2.5923    -0.0720    -1.4650 H       
  19 H19            2.1652     1.2453    -0.3409 H       
  20 H20            4.3902     0.1206     0.1741 H       
  21 H21            3.2245     0.0816     1.5208 H       
  22 H22            3.6832    -2.1705    -0.4886 H       
  23 H23            4.3040    -2.1368     1.1779 H       
  24 H24           -0.9953    -2.3436     0.1547 H       
  25 H25           -0.0784    -3.6525     0.9385 H       
  26 H26           -0.2784    -2.0881     1.7637 H       
  27 H27            0.4392     1.1419     2.3892 H       
  28 H28           -0.6591     2.4130     2.9775 H       
  29 H29           -1.3176     0.9786     2.1545 H       
  30 H30            0.8752     3.9027    -0.0695 H       
  31 H31            0.6214     4.1206     1.6787 H       
  32 H32            1.7198     2.8495     1.0905 H       
  33 H33           -2.5031     2.4571     0.5263 H       
  34 H34           -1.8447     3.8915     1.3493 H       
  35 H35           -1.5908     3.6736    -0.3990 H       
@<TRIPOS>BOND
   1    1    2 1
   2    1   10 am
   3    1   13 1
   4    2    4 2
   5    3    4 1
   6    3    8 1
   7    3    9 1
   8    3   17 1
   9    4    5 1
  10    5    6 1
  11    5   18 1
  12    5   19 1
  13    6    7 1
  14    6   20 1
  15    6   21 1
  16    7    8 1
  17    7   22 1
  18    7   23 1
  19    9   24 1
  20    9   25 1
  21    9   26 1
  22   10   11 ar
  23   10   12 ar
  24   13   14 1
  25   13   16 1
  26   13   15 1
  27   14   27 1
  28   14   28 1
  29   14   29 1
  30   15   30 1
  31   15   31 1
  32   15   32 1
  33   16   33 1
  34   16   34 1
  35   16   35 1

#	End of record

