#	Name: ASD02448058
#	Creating user name:	WinNT
#	Creation time:	15. 06. 2019 20:21

#	Modifying user name:	WinNT
#	Modification time:	15. 06. 2019 20:21

#	Program:	/corina/corina34_cracker 3.40 0067  02.08.2006

@<TRIPOS>MOLECULE
ASD02448058
  81   87    0    0    0
SMALL
NO_CHARGES


@<TRIPOS>ATOM
   1 C1            -0.0235     1.3535    -0.0538 C.ar    
   2 C2            -0.0045    -0.0279    -0.0457 C.ar    
   3 C3             1.2069    -0.7075    -0.0367 C.ar    
   4 C4             2.3985     0.0018    -0.0364 C.ar    
   5 C5             2.3767     1.3898    -0.0450 C.ar    
   6 C6             1.1617     2.0637    -0.0535 C.ar    
   7 N7             3.5746     2.1080    -0.0442 N.am    
   8 C8             4.4057     2.4784    -1.1971 C.3     
   9 C9             5.6128     3.2502    -0.7715 C.2     
  10 N10            5.7107     3.4560     0.5495 N.am    
  11 S11            4.3855     2.7479     1.2659 S.o2    
  12 O12            6.4394     3.6581    -1.5597 O.2     
  13 O13            3.5839     3.7960     1.7933 O.2     
  14 O14            4.8602     1.6499     2.0330 O.2     
  15 N15            1.2249    -2.1093    -0.0276 N.pl3   
  16 C16            1.8570    -2.9195    -0.9334 C.2     
  17 C17            0.6233    -2.9170     0.8848 C.2     
  18 N18            0.8592    -4.1596     0.5683 N.2     
  19 C19            1.6163    -4.1993    -0.5469 C.2     
  20 C20            2.1003    -5.4239    -1.2308 C.ar    
  21 C21            1.7772    -6.6834    -0.7233 C.ar    
  22 C22            2.8738    -5.3204    -2.3846 C.ar    
  23 C23            3.3221    -6.4620    -3.0178 C.ar    
  24 C24            3.0041    -7.7104    -2.5085 C.ar    
  25 C25            2.2308    -7.8203    -1.3644 C.ar    
  26 C26           -0.1838    -2.4523     2.0696 C.3     
  27 C27            0.6970    -2.4090     3.2916 C.ar    
  28 C28            1.4600    -1.2850     3.5516 C.ar    
  29 C29            0.7350    -3.4912     4.1523 C.ar    
  30 C30            1.5395    -3.4568     5.2732 C.ar    
  31 C31            2.3143    -2.3292     5.5371 C.ar    
  32 C32            2.2681    -1.2398     4.6696 C.ar    
  33 C33            3.1808    -2.2862     6.7410 C.ar    
  34 C34            3.9556    -1.1586     7.0049 C.ar    
  35 C35            3.2183    -3.3710     7.6146 C.ar    
  36 C36            4.0260    -3.3257     8.7328 C.ar    
  37 C37            4.7971    -2.2059     8.9872 C.ar    
  38 C38            4.7598    -1.1240     8.1261 C.ar    
  39 F39            1.0231    -6.7907     0.3925 F       
  40 F40            3.4452    -8.8244    -3.1326 F       
  41 C41            5.6764    -2.1618    10.2103 C.3     
  42 C42            7.1348    -1.9829     9.7838 C.3     
  43 C43            8.0275    -1.9382    11.0255 C.3     
  44 C44            7.6081    -0.7647    11.9132 C.3     
  45 C45            6.1497    -0.9436    12.3397 C.3     
  46 C46            5.2570    -0.9883    11.0979 C.3     
  47 C47            1.1365     3.5704    -0.0628 C.3     
  48 H48           -0.9668     1.8793    -0.0649 H       
  49 H49           -0.9327    -0.5800    -0.0460 H       
  50 H50            3.3416    -0.5245    -0.0291 H       
  51 H51            4.7246     1.5727    -1.7130 H       
  52 H52            3.8154     3.0877    -1.8816 H       
  53 H53            6.4223     3.9331     1.0045 H       
  54 H54            2.4345    -2.6023    -1.7891 H       
  55 H55            3.1221    -4.3480    -2.7836 H       
  56 H56            3.9218    -6.3819    -3.9124 H       
  57 H57            1.9854    -8.7957    -0.9709 H       
  58 H58           -0.5795    -1.4562     1.8715 H       
  59 H59           -1.0090    -3.1436     2.2407 H       
  60 H60            1.4237    -0.4414     2.8783 H       
  61 H61            0.1338    -4.3646     3.9469 H       
  62 H62            1.5682    -4.3022     5.9447 H       
  63 H63            2.8669    -0.3635     4.8692 H       
  64 H64            3.9272    -0.3134     6.3332 H       
  65 H65            2.6161    -4.2456     7.4173 H       
  66 H66            4.0558    -4.1660     9.4107 H       
  67 H67            5.3642    -0.2523     8.3292 H       
  68 H68            5.5722    -3.0935    10.7664 H       
  69 H69            7.4336    -2.8189     9.1514 H       
  70 H70            7.2390    -1.0513     9.2276 H       
  71 H71            7.9233    -2.8698    11.5817 H       
  72 H72            9.0665    -1.8107    10.7217 H       
  73 H73            8.2440    -0.7328    12.7979 H       
  74 H74            7.7123     0.1669    11.3571 H       
  75 H75            6.0454    -1.8753    12.8958 H       
  76 H76            5.8508    -0.1076    12.9721 H       
  77 H77            5.3612    -0.0567    10.5418 H       
  78 H78            4.2180    -1.1158    11.4018 H       
  79 H79            1.1342     3.9274    -1.0927 H       
  80 H80            0.2388     3.9220     0.4456 H       
  81 H81            2.0185     3.9517     0.4518 H       
@<TRIPOS>BOND
   1    1    2 ar
   2    1    6 ar
   3    1   48 1
   4    2    3 ar
   5    2   49 1
   6    3    4 ar
   7    3   15 1
   8    4    5 ar
   9    4   50 1
  10    5    6 ar
  11    5    7 1
  12    6   47 1
  13    7    8 1
  14    7   11 am
  15    8    9 1
  16    8   51 1
  17    8   52 1
  18    9   10 am
  19    9   12 2
  20   10   11 am
  21   10   53 1
  22   11   13 2
  23   11   14 2
  24   15   16 1
  25   15   17 1
  26   16   19 2
  27   16   54 1
  28   17   18 2
  29   17   26 1
  30   18   19 1
  31   19   20 1
  32   20   21 ar
  33   20   22 ar
  34   21   39 1
  35   21   25 ar
  36   22   23 ar
  37   22   55 1
  38   23   24 ar
  39   23   56 1
  40   24   25 ar
  41   24   40 1
  42   25   57 1
  43   26   27 1
  44   26   58 1
  45   26   59 1
  46   27   28 ar
  47   27   29 ar
  48   28   32 ar
  49   28   60 1
  50   29   30 ar
  51   29   61 1
  52   30   31 ar
  53   30   62 1
  54   31   32 ar
  55   31   33 1
  56   32   63 1
  57   33   34 ar
  58   33   35 ar
  59   34   38 ar
  60   34   64 1
  61   35   36 ar
  62   35   65 1
  63   36   37 ar
  64   36   66 1
  65   37   38 ar
  66   37   41 1
  67   38   67 1
  68   41   42 1
  69   41   46 1
  70   41   68 1
  71   42   43 1
  72   42   69 1
  73   42   70 1
  74   43   44 1
  75   43   71 1
  76   43   72 1
  77   44   45 1
  78   44   73 1
  79   44   74 1
  80   45   46 1
  81   45   75 1
  82   45   76 1
  83   46   77 1
  84   46   78 1
  85   47   79 1
  86   47   80 1
  87   47   81 1

#	End of record

