#	Name: ASD02038283
#	Creating user name:	WinNT
#	Creation time:	15. 06. 2019 20:16

#	Modifying user name:	WinNT
#	Modification time:	15. 06. 2019 20:16

#	Program:	/corina/corina34_cracker 3.40 0067  02.08.2006

@<TRIPOS>MOLECULE
ASD02038283
  62   66    0    0    0
SMALL
NO_CHARGES


@<TRIPOS>ATOM
   1 C1             0.2590     1.6473    -0.2171 C.3     
   2 C2             0.1718     0.1223    -0.1206 C.3     
   3 N3             0.8289    -0.4782    -1.2899 N.3     
   4 C4             0.7003    -1.9415    -1.2723 C.3     
   5 C5             1.6729    -2.5267    -0.2464 C.3     
   6 C6             1.6485    -4.0540    -0.3338 C.3     
   7 O7             2.6395    -4.5971     0.5408 O.3     
   8 C8             2.7500    -5.9516     0.5830 C.ar    
   9 C9             3.6918    -6.5448     1.4109 C.ar    
  10 C10            1.9169    -6.7399    -0.1976 C.ar    
  11 C11            2.0276    -8.1156    -0.1547 C.ar    
  12 C12            2.9737    -8.7099     0.6697 C.ar    
  13 C13            3.8039    -7.9203     1.4540 C.ar    
  14 C14            2.2401    -0.0745    -1.3625 C.3     
  15 C15            2.3273     1.4505    -1.4590 C.3     
  16 N16            1.6702     2.0511    -0.2897 N.3     
  17 C17            1.7925     3.4424    -0.3065 C.ar    
  18 C18            1.2373     4.2023     0.7152 C.ar    
  19 C19            1.3605     5.5777     0.6958 C.ar    
  20 C20            2.0357     6.1985    -0.3391 C.ar    
  21 C21            2.5896     5.4449    -1.3578 C.ar    
  22 C22            2.4746     4.0688    -1.3418 C.ar    
  23 N23            3.0893   -10.1046     0.7156 N.am    
  24 C24            3.7142   -10.7034     1.7460 C.2     
  25 C25            4.2841    -9.8911     2.8775 C.3     
  26 C26            4.8302    -8.5680     2.3469 C.3     
  27 O27            3.8189   -11.9116     1.7633 O.2     
  28 C28            2.1677     7.6996    -0.3572 C.3     
  29 O29            1.2832    -2.1184     1.0664 O.3     
  30 C30            3.5813     8.2847    -0.3407 C.3     
  31 C31            2.7441     8.3429    -1.6200 C.3     
  32 H32           -0.2625     1.9855    -1.1125 H       
  33 H33           -0.2023     2.0944     0.6635 H       
  34 H34            0.6699    -0.2136     0.7889 H       
  35 H35           -0.8747    -0.1812    -0.0958 H       
  36 H36           -0.3200    -2.2133    -1.0018 H       
  37 H37            0.9322    -2.3385    -2.2605 H       
  38 H38            2.6805    -2.1669    -0.4546 H       
  39 H39            0.6646    -4.4190    -0.0393 H       
  40 H40            1.8590    -4.3627    -1.3578 H       
  41 H41            4.3375    -5.9309     2.0213 H       
  42 H42            1.1812    -6.2774    -0.8389 H       
  43 H43            1.3784    -8.7290    -0.7618 H       
  44 H44            2.7616    -0.4126    -0.4671 H       
  45 H45            2.7014    -0.5215    -2.2431 H       
  46 H46            3.3739     1.7541    -1.4838 H       
  47 H47            1.8292     1.7864    -2.3685 H       
  48 H48            0.7096     3.7182     1.5236 H       
  49 H49            0.9288     6.1692     1.4897 H       
  50 H50            3.1162     5.9329    -2.1646 H       
  51 H51            2.9077     3.4808    -2.1375 H       
  52 H52            2.7161   -10.6428     0.0000 H       
  53 H53            3.5012    -9.6893     3.6085 H       
  54 H54            5.0884   -10.4504     3.3554 H       
  55 H55            5.7404    -8.7534     1.7765 H       
  56 H56            5.0546    -7.9062     3.1834 H       
  57 H57            1.3905     8.2463     0.1768 H       
  58 H58            0.3949    -2.4045     1.3198 H       
  59 H59            3.7340     9.2165     0.2037 H       
  60 H60            4.4158     7.5839    -0.3169 H       
  61 H61            3.0278     7.6804    -2.4378 H       
  62 H62            2.3459     9.3131    -1.9172 H       
@<TRIPOS>BOND
   1    1    2 1
   2    1   16 1
   3    1   32 1
   4    1   33 1
   5    2    3 1
   6    2   34 1
   7    2   35 1
   8    3    4 1
   9    3   14 1
  10    4    5 1
  11    4   36 1
  12    4   37 1
  13    5    6 1
  14    5   29 1
  15    5   38 1
  16    6    7 1
  17    6   39 1
  18    6   40 1
  19    7    8 1
  20    8    9 ar
  21    8   10 ar
  22    9   13 ar
  23    9   41 1
  24   10   11 ar
  25   10   42 1
  26   11   12 ar
  27   11   43 1
  28   12   13 ar
  29   12   23 1
  30   13   26 1
  31   14   15 1
  32   14   44 1
  33   14   45 1
  34   15   16 1
  35   15   46 1
  36   15   47 1
  37   16   17 1
  38   17   18 ar
  39   17   22 ar
  40   18   19 ar
  41   18   48 1
  42   19   20 ar
  43   19   49 1
  44   20   21 ar
  45   20   28 1
  46   21   22 ar
  47   21   50 1
  48   22   51 1
  49   23   24 am
  50   23   52 1
  51   24   25 1
  52   24   27 2
  53   25   26 1
  54   25   53 1
  55   25   54 1
  56   26   55 1
  57   26   56 1
  58   28   30 1
  59   28   31 1
  60   28   57 1
  61   29   58 1
  62   30   31 1
  63   30   59 1
  64   30   60 1
  65   31   61 1
  66   31   62 1

#	End of record

