#	Name: ASD01880893
#	Creating user name:	WinNT
#	Creation time:	15. 06. 2019 19:41

#	Modifying user name:	WinNT
#	Modification time:	15. 06. 2019 19:41

#	Program:	/corina/corina34_cracker 3.40 0067  02.08.2006

@<TRIPOS>MOLECULE
ASD01880893
  46   48    0    0    0
SMALL
NO_CHARGES


@<TRIPOS>ATOM
   1 N1            -0.0158     1.3134     0.0093 N.ar    
   2 C2             0.0021    -0.0041     0.0020 C.ar    
   3 N3             1.1303    -0.6845    -0.0120 N.ar    
   4 C4             2.3038    -0.0593    -0.0198 C.ar    
   5 C5             2.3283     1.3305    -0.0130 C.ar    
   6 C6             1.1162     2.0110     0.0022 C.ar    
   7 C7             3.6354     2.0804    -0.0215 C.3     
   8 O8             4.0360     2.3243    -1.3713 O.3     
   9 C9             5.2013     2.9947    -1.5567 C.ar    
  10 C10            5.6499     3.2655    -2.8457 C.ar    
  11 C11            6.8286     3.9441    -3.0318 C.ar    
  12 C12            7.5835     4.3663    -1.9324 C.ar    
  13 C13            7.1281     4.0920    -0.6399 C.ar    
  14 C14            5.9425     3.4152    -0.4588 C.ar    
  15 C15            7.5813     4.3889    -4.2611 C.3     
  16 N16            8.7851     5.0751    -3.7784 N.am    
  17 C17            8.7824     5.0597    -2.4344 C.2     
  18 O18            9.6464     5.5490    -1.7327 O.2     
  19 C19            7.9311     4.5401     0.5541 C.3     
  20 O20            3.4596    -0.7671    -0.0338 O.3     
  21 C21            3.3479    -2.1918    -0.0394 C.3     
  22 C22            9.4622     7.1381    -4.9040 C.3     
  23 C23            9.8200     5.6774    -4.6225 C.3     
  24 O24            1.0886     3.3661     0.0089 O.3     
  25 C25           -0.1975     3.9887     0.0246 C.3     
  26 H26           -0.9347    -0.5415     0.0081 H       
  27 H27            3.5125     3.0306     0.4983 H       
  28 H28            4.3982     1.4867     0.4822 H       
  29 H29            5.0718     2.9419    -3.6987 H       
  30 H30            5.5909     3.2039     0.5402 H       
  31 H31            7.8591     3.5241    -4.8636 H       
  32 H32            6.9693     5.0740    -4.8477 H       
  33 H33            7.6136     5.5397     0.8510 H       
  34 H34            7.7709     3.8476     1.3804 H       
  35 H35            8.9896     4.5573     0.2944 H       
  36 H36            4.3440    -2.6343    -0.0507 H       
  37 H37            2.8155    -2.5180     0.8539 H       
  38 H38            2.7991    -2.5096    -0.9259 H       
  39 H39           10.2322     7.5862    -5.5321 H       
  40 H40            8.5020     7.1844    -5.4177 H       
  41 H41            9.3977     7.6842    -3.9629 H       
  42 H42           10.7803     5.6310    -4.1089 H       
  43 H43            9.8846     5.1312    -5.5636 H       
  44 H44           -0.0767     5.0720     0.0285 H       
  45 H45           -0.7572     3.6887    -0.8613 H       
  46 H46           -0.7396     3.6803     0.9185 H       
@<TRIPOS>BOND
   1    1    2 ar
   2    1    6 ar
   3    2    3 ar
   4    2   26 1
   5    3    4 ar
   6    4    5 ar
   7    4   20 1
   8    5    6 ar
   9    5    7 1
  10    6   24 1
  11    7    8 1
  12    7   27 1
  13    7   28 1
  14    8    9 1
  15    9   10 ar
  16    9   14 ar
  17   10   11 ar
  18   10   29 1
  19   11   12 ar
  20   11   15 1
  21   12   13 ar
  22   12   17 1
  23   13   14 ar
  24   13   19 1
  25   14   30 1
  26   15   16 1
  27   15   31 1
  28   15   32 1
  29   16   17 am
  30   16   23 1
  31   17   18 2
  32   19   33 1
  33   19   34 1
  34   19   35 1
  35   20   21 1
  36   21   36 1
  37   21   37 1
  38   21   38 1
  39   22   23 1
  40   22   39 1
  41   22   40 1
  42   22   41 1
  43   23   42 1
  44   23   43 1
  45   24   25 1
  46   25   44 1
  47   25   45 1
  48   25   46 1

#	End of record

