#	Name: ASD04880297
#	Creating user name:	WinNT
#	Creation time:	15. 06. 2019 20:53

#	Modifying user name:	WinNT
#	Modification time:	15. 06. 2019 20:53

#	Program:	/corina/corina34_cracker 3.40 0067  02.08.2006

@<TRIPOS>MOLECULE
ASD04880297
  44   46    0    0    0
SMALL
NO_CHARGES


@<TRIPOS>ATOM
   1 C1            -0.0144     1.2136     0.0087 C.2     
   2 O2             0.0021    -0.0041     0.0020 O.2     
   3 N3             1.1435     1.9033     0.0014 N.am    
   4 N4             1.2598     3.2918     0.0082 N.2     
   5 C5             2.4757     3.7181    -0.0008 C.2     
   6 C6             3.4238     2.5404    -0.0164 C.3     
   7 C7             2.4913     1.3129    -0.0088 C.3     
   8 C8             2.7188     0.4686     1.2468 C.3     
   9 C9             2.7015     0.4724    -1.2698 C.3     
  10 C10            2.8802     5.1358     0.0031 C.ar    
  11 C11            1.9094     6.1412     0.0180 C.ar    
  12 C12            2.2941     7.4685     0.0215 C.ar    
  13 C13            3.6471     7.8020     0.0102 C.ar    
  14 C14            4.6107     6.8047    -0.0051 C.ar    
  15 C15            4.2345     5.4775    -0.0024 C.ar    
  16 O16            4.0235     9.1083     0.0136 O.3     
  17 C17            5.4265     9.3793     0.0015 C.3     
  18 O18            1.3522     8.4494     0.0355 O.3     
  19 C19           -0.0155     8.0353     0.0461 C.3     
  20 O20           -1.4365     3.2877     0.0263 O.3     
  21 C21           -2.7991     3.5162     0.4367 C.3     
  22 O22           -3.4665     2.3055     0.0306 O.3     
  23 C23           -2.5055     1.3497     0.0217 C.2     
  24 C24           -1.2915     1.9279     0.0187 C.2     
  25 H25            4.0359     2.5543    -0.9182 H       
  26 H26            4.0527     2.5440     0.8738 H       
  27 H27            1.9985    -0.3491     1.2702 H       
  28 H28            3.7300     0.0619     1.2329 H       
  29 H29            2.5899     1.0917     2.1318 H       
  30 H30            2.5605     1.0980    -2.1512 H       
  31 H31            3.7128     0.0656    -1.2710 H       
  32 H32            1.9809    -0.3453    -1.2857 H       
  33 H33            0.8612     5.8815     0.0264 H       
  34 H34            5.6582     7.0677    -0.0142 H       
  35 H35            4.9870     4.7029    -0.0090 H       
  36 H36            5.5884    10.4572     0.0058 H       
  37 H37            5.8892     8.9388     0.8846 H       
  38 H38            5.8720     8.9486    -0.8952 H       
  39 H39           -0.6609     8.9136     0.0568 H       
  40 H40           -0.2226     7.4430    -0.8452 H       
  41 H41           -0.2060     7.4335     0.9347 H       
  42 H42           -2.8597     3.6460     1.5173 H       
  43 H43           -3.2180     4.3795    -0.0804 H       
  44 H44           -2.6873     0.2851     0.0175 H       
@<TRIPOS>BOND
   1    1    2 2
   2    1    3 am
   3    1   24 1
   4    3    4 1
   5    3    7 1
   6    4    5 2
   7    5    6 1
   8    5   10 1
   9    6    7 1
  10    6   25 1
  11    6   26 1
  12    7    8 1
  13    7    9 1
  14    8   27 1
  15    8   28 1
  16    8   29 1
  17    9   30 1
  18    9   31 1
  19    9   32 1
  20   10   11 ar
  21   10   15 ar
  22   11   12 ar
  23   11   33 1
  24   12   13 ar
  25   12   18 1
  26   13   14 ar
  27   13   16 1
  28   14   15 ar
  29   14   34 1
  30   15   35 1
  31   16   17 1
  32   17   36 1
  33   17   37 1
  34   17   38 1
  35   18   19 1
  36   19   39 1
  37   19   40 1
  38   19   41 1
  39   20   21 1
  40   20   24 1
  41   21   22 1
  42   21   42 1
  43   21   43 1
  44   22   23 1
  45   23   24 2
  46   23   44 1

#	End of record

