#	Name: ASD03091873
#	Creating user name:	WinNT
#	Creation time:	15. 06. 2019 20:31

#	Modifying user name:	WinNT
#	Modification time:	15. 06. 2019 20:31

#	Program:	/corina/corina34_cracker 3.40 0067  02.08.2006

@<TRIPOS>MOLECULE
ASD03091873
  47   50    0    0    0
SMALL
NO_CHARGES


@<TRIPOS>ATOM
   1 N1             0.0502     1.3635    -0.4135 N.pl3   
   2 N2             0.1229    -0.0389    -0.3932 N.2     
   3 C3             1.2741    -0.3556     0.1598 C.2     
   4 N4             1.9265     0.7653     0.4870 N.2     
   5 C5             1.2056     1.8144     0.1497 C.2     
   6 C6            -0.9982     2.1427    -0.9176 C.ar    
   7 C7            -0.7236     3.2512    -1.7080 C.ar    
   8 C8            -1.7599     4.0178    -2.2036 C.ar    
   9 C9            -3.0699     3.6829    -1.9134 C.ar    
  10 C10           -3.3466     2.5798    -1.1268 C.ar    
  11 C11           -2.3150     1.8055    -0.6331 C.ar    
  12 C12            1.5832     3.2302     0.3467 C.ar    
  13 C13            0.5980     4.1913     0.5793 C.ar    
  14 C14            0.9540     5.5101     0.7630 C.ar    
  15 C15            2.2911     5.8832     0.7166 C.ar    
  16 C16            3.2742     4.9298     0.4849 C.ar    
  17 C17            2.9264     3.6082     0.3065 C.ar    
  18 C18            1.7694    -1.7361     0.3850 C.ar    
  19 C19            3.0108    -1.9447     0.9828 C.ar    
  20 C20            3.4666    -3.2305     1.1904 C.ar    
  21 C21            2.6932    -4.3121     0.8057 C.ar    
  22 C22            1.4597    -4.1102     0.2112 C.ar    
  23 C23            0.9921    -2.8284     0.0048 C.ar    
  24 Br24           3.3243    -6.0714     1.0928 Br      
  25 S25           -4.3891     4.6643    -2.5468 S.o2    
  26 O26           -5.4981     4.4505    -1.6844 O.2     
  27 O27           -3.8435     5.9503    -2.8070 O.2     
  28 N28           -4.8106     4.0289    -4.0169 N.am    
  29 O29            2.6381     7.1839     0.8976 O.3     
  30 C30            4.0308     7.4982     0.8373 C.3     
  31 H31            0.2993     3.5137    -1.9344 H       
  32 H32           -1.5471     4.8800    -2.8183 H       
  33 H33           -4.3708     2.3209    -0.9019 H       
  34 H34           -2.5320     0.9413    -0.0228 H       
  35 H35           -0.4419     3.9020     0.6149 H       
  36 H36            0.1924     6.2543     0.9430 H       
  37 H37            4.3128     5.2238     0.4491 H       
  38 H38            3.6918     2.8666     0.1308 H       
  39 H39            3.6152    -1.1014     1.2826 H       
  40 H40            4.4286    -3.3932     1.6536 H       
  41 H41            0.8601    -4.9574    -0.0875 H       
  42 H42            0.0275    -2.6720    -0.4552 H       
  43 H43           -4.3418     3.2532    -4.3624 H       
  44 H44           -5.5263     4.4326    -4.5325 H       
  45 H45            4.5624     6.9430     1.6101 H       
  46 H46            4.4230     7.2241    -0.1420 H       
  47 H47            4.1692     8.5674     0.9978 H       
@<TRIPOS>BOND
   1    1    2 1
   2    1    5 1
   3    1    6 1
   4    2    3 2
   5    3    4 1
   6    3   18 1
   7    4    5 2
   8    5   12 1
   9    6    7 ar
  10    6   11 ar
  11    7    8 ar
  12    7   31 1
  13    8    9 ar
  14    8   32 1
  15    9   10 ar
  16    9   25 1
  17   10   11 ar
  18   10   33 1
  19   11   34 1
  20   12   13 ar
  21   12   17 ar
  22   13   14 ar
  23   13   35 1
  24   14   15 ar
  25   14   36 1
  26   15   16 ar
  27   15   29 1
  28   16   17 ar
  29   16   37 1
  30   17   38 1
  31   18   19 ar
  32   18   23 ar
  33   19   20 ar
  34   19   39 1
  35   20   21 ar
  36   20   40 1
  37   21   22 ar
  38   21   24 1
  39   22   23 ar
  40   22   41 1
  41   23   42 1
  42   25   26 2
  43   25   27 2
  44   25   28 am
  45   28   43 1
  46   28   44 1
  47   29   30 1
  48   30   45 1
  49   30   46 1
  50   30   47 1

#	End of record

