#	Name: ASD04570019
#	Creating user name:	WinNT
#	Creation time:	15. 06. 2019 20:49

#	Modifying user name:	WinNT
#	Modification time:	15. 06. 2019 20:49

#	Program:	/corina/corina34_cracker 3.40 0067  02.08.2006

@<TRIPOS>MOLECULE
ASD04570019
 362  363    0    0    0
SMALL
NO_CHARGES


@<TRIPOS>ATOM
   1 C1            -0.0187     1.5258     0.0104 C.3     
   2 C2             0.0021    -0.0041     0.0020 C.3     
   3 C3             0.7421    -0.5109     1.2415 C.3     
   4 C4             0.7628    -2.0407     1.2331 C.3     
   5 C5             1.5028    -2.5476     2.4727 C.3     
   6 C6             1.5236    -4.0774     2.4642 C.3     
   7 C7             2.2636    -4.5842     3.7038 C.3     
   8 C8             2.2843    -6.1141     3.6954 C.3     
   9 C9             3.0243    -6.6209     4.9349 C.3     
  10 C10            3.0450    -8.1508     4.9265 C.3     
  11 C11            3.7850    -8.6576     6.1660 C.3     
  12 C12            3.8058   -10.1874     6.1576 C.3     
  13 C13            4.5458   -10.6943     7.3971 C.3     
  14 C14            4.5665   -12.2241     7.3887 C.3     
  15 C15            5.3065   -12.7309     8.6282 C.3     
  16 C16            5.3270   -14.2378     8.6199 C.2     
  17 N17            5.9293   -14.9091     9.6215 N.am    
  18 O18            4.8014   -14.8464     7.7120 O.2     
  19 C19            5.9491   -16.3739     9.6134 C.3     
  20 H20            6.3496   -14.4223    10.3476 H       
  21 C21            7.1274   -16.8647    10.4145 C.2     
  22 C22            4.6547   -16.9049    10.2326 C.3     
  23 C23            3.4684   -16.5114     9.3502 C.3     
  24 S24            1.9337   -17.1409    10.0843 S.3     
  25 C25            0.6635   -16.5834     8.9153 C.3     
  26 N26            7.3484   -18.1877    10.5466 N.am    
  27 O27            7.8768   -16.0692    10.9404 O.2     
  28 C28            8.4939   -18.6648    11.3253 C.3     
  29 C29            8.5143   -20.1716    11.3171 C.2     
  30 N30            9.4859   -20.8360    11.9737 N.am    
  31 O31            7.6566   -20.7865    10.7195 O.2     
  32 C32            9.5057   -22.3009    11.9657 C.3     
  33 C33            8.5961   -22.8294    13.0766 C.3     
  34 C34            7.1684   -22.4484    12.7807 C.ar    
  35 C35            6.3675   -23.2964    12.0383 C.ar    
  36 N36           11.1748   -24.1073    12.2295 N.am    
  37 C37           10.9139   -22.7854    12.1964 C.2     
  38 C38            6.6599   -21.2540    13.2569 C.ar    
  39 C39            5.3514   -20.9027    12.9873 C.ar    
  40 C40            4.5473   -21.7494    12.2382 C.ar    
  41 C41            5.0584   -22.9495    11.7657 C.ar    
  42 O42           11.8125   -21.9859    12.3522 O.2     
  43 C43           12.5438   -24.5783    12.4538 C.3     
  44 O44            3.2595   -21.4063    11.9721 O.3     
  45 C45           13.2960   -24.6123    11.1220 C.3     
  46 C46           12.5077   -25.9637    13.0458 C.2     
  47 N47           13.6582   -26.6019    13.3379 N.am    
  48 O48           11.4432   -26.5044    13.2593 O.2     
  49 C49           13.4414   -23.1882    10.5819 C.3     
  50 C50           14.1824   -23.2216     9.2701 C.2     
  51 O51           14.5573   -24.2802     8.8122 O.2     
  52 N52           14.4284   -22.0751     8.6057 N.am    
  53 C53           13.6231   -27.9487    13.9134 C.3     
  54 C54           13.4633   -27.8505    15.4318 C.3     
  55 C55           14.9074   -28.6672    13.5889 C.2     
  56 C56           12.1028   -27.2334    15.7626 C.3     
  57 C57           11.9430   -27.1351    17.2810 C.3     
  58 C58           10.5826   -26.5181    17.6118 C.3     
  59 N59           10.4291   -26.4238    19.0697 N.3     
  60 N60           15.1004   -29.9299    14.0190 N.am    
  61 O61           15.7674   -28.1093    12.9408 O.2     
  62 C62           16.3489   -30.6284    13.7036 C.3     
  63 C63           16.1073   -32.1391    13.7241 C.3     
  64 C64           17.4118   -30.2678    14.7434 C.3     
  65 C65           15.1381   -32.5158    12.6017 C.3     
  66 C66           14.8965   -34.0264    12.6222 C.3     
  67 C67           13.9273   -34.4032    11.4999 C.3     
  68 N68           13.6954   -35.8536    11.5195 N.3     
  69 H69            1.0039     1.9031     0.0027 H       
  70 H70           -0.5459     1.8868    -0.8726 H       
  71 H71           -0.5289     1.8773     0.9072 H       
  72 H72           -1.0205    -0.3814     0.0098 H       
  73 H73            0.5123    -0.3556    -0.8948 H       
  74 H74            1.7647    -0.1336     1.2338 H       
  75 H75            0.2319    -0.1594     2.1383 H       
  76 H76           -0.2598    -2.4180     1.2409 H       
  77 H77            1.2730    -2.3923     0.3363 H       
  78 H78            2.5254    -2.1703     2.4649 H       
  79 H79            0.9926    -2.1961     3.3695 H       
  80 H80            0.5010    -4.4547     2.4720 H       
  81 H81            2.0337    -4.4289     1.5675 H       
  82 H82            3.2861    -4.2070     3.6960 H       
  83 H83            1.7534    -4.2327     4.6006 H       
  84 H84            1.2617    -6.4914     3.7031 H       
  85 H85            2.7945    -6.4656     2.7986 H       
  86 H86            4.0469    -6.2436     4.9271 H       
  87 H87            2.5141    -6.2694     5.8317 H       
  88 H88            2.0224    -8.5280     4.9342 H       
  89 H89            3.5552    -8.5023     4.0297 H       
  90 H90            4.8076    -8.2803     6.1583 H       
  91 H91            3.2748    -8.3061     7.0628 H       
  92 H92            2.7832   -10.5647     6.1653 H       
  93 H93            4.3160   -10.5389     5.2608 H       
  94 H94            5.5684   -10.3170     7.3894 H       
  95 H95            4.0356   -10.3427     8.2939 H       
  96 H96            3.5439   -12.6014     7.3964 H       
  97 H97            5.0767   -12.5756     6.4919 H       
  98 H98            6.3291   -12.3537     8.6205 H       
  99 H99            4.7963   -12.3794     9.5250 H       
 100 H100           6.0338   -16.7305     8.5869 H       
 101 H101           4.7069   -17.9911    10.3080 H       
 102 H102           4.5255   -16.4775    11.2269 H       
 103 H103           3.4162   -15.4252     9.2748 H       
 104 H104           3.5975   -16.9388     8.3559 H       
 105 H105          -0.3171   -16.9107     9.2609 H       
 106 H106           0.6815   -15.4955     8.8508 H       
 107 H107           0.8628   -17.0091     7.9319 H       
 108 H108           6.7491   -18.8239    10.1260 H       
 109 H109           9.4161   -18.2865    10.8842 H       
 110 H110           8.4092   -18.3082    12.3519 H       
 111 H111          10.1719   -20.3443    12.4517 H       
 112 H112           9.1500   -22.6638    11.0014 H       
 113 H113           8.6791   -23.9150    13.1286 H       
 114 H114           8.8976   -22.3959    14.0301 H       
 115 H115           6.7658   -24.2307    11.6710 H       
 116 H116          10.4562   -24.7467    12.1049 H       
 117 H117           7.2862   -20.5954    13.8403 H       
 118 H118           4.9545   -19.9699    13.3598 H       
 119 H119           4.4344   -23.6103    11.1823 H       
 120 H120          13.0525   -23.9026    13.1413 H       
 121 H121           3.1480   -20.9006    11.1554 H       
 122 H122          14.2845   -25.0459    11.2739 H       
 123 H123          12.7400   -25.2174    10.4059 H       
 124 H124          14.5096   -26.1695    13.1671 H       
 125 H125          12.4530   -22.7546    10.4299 H       
 126 H126          13.9974   -22.5830    11.2979 H       
 127 H127          14.1285   -21.2284     8.9719 H       
 128 H128          14.9053   -22.0966     7.7613 H       
 129 H129          12.7820   -28.5010    13.4945 H       
 130 H130          13.5262   -28.8470    15.8690 H       
 131 H131          14.2556   -27.2236    15.8408 H       
 132 H132          12.0399   -26.2369    15.3254 H       
 133 H133          11.3105   -27.8603    15.3536 H       
 134 H134          12.0059   -28.1316    17.7182 H       
 135 H135          12.7354   -26.5083    17.6900 H       
 136 H136          10.5196   -25.5216    17.1746 H       
 137 H137           9.7902   -27.1450    17.2028 H       
 138 H138          11.1882   -25.9010    19.4801 H       
 139 H139           9.5377   -26.0190    19.3140 H       
 140 H140          14.4126   -30.3761    14.5374 H       
 141 H141          16.6928   -30.3288    12.7136 H       
 142 H142          17.0533   -32.6603    13.5774 H       
 143 H143          15.6797   -32.4257    14.6848 H       
 144 H144          18.3407   -30.7875    14.5087 H       
 145 H145          17.5839   -29.1915    14.7289 H       
 146 H146          17.0679   -30.5674    15.7334 H       
 147 H147          14.1921   -31.9945    12.7484 H       
 148 H148          15.5657   -32.2292    11.6410 H       
 149 H149          15.8425   -34.5477    12.4755 H       
 150 H150          14.4689   -34.3130    13.5830 H       
 151 H151          12.9813   -33.8819    11.6465 H       
 152 H152          14.3549   -34.1166    10.5391 H       
 153 H153          13.3594   -36.1539    12.4223 H       
 154 H154          13.0579   -36.1278    10.7870 H       
 155 C155          40.7733    23.6345    29.7098 C.3     
 156 C156          40.8333    22.1347    29.5756 C.2     
 157 N157          39.6980    21.4091    29.6099 N.am    
 158 O158          41.9032    21.5806    29.4368 O.2     
 159 C159          39.7563    19.9511    29.4794 C.3     
 160 C160          40.0234    19.3267    30.8504 C.3     
 161 O161          40.0803    17.9045    30.7232 O.3     
 162 N162          38.2652    18.1216    28.7393 N.am    
 163 C163          38.4435    19.4419    28.9426 C.2     
 164 O164          37.5474    20.2203    28.6936 O.2     
 165 C165          36.9544    17.6145    28.3260 C.3     
 166 C166          37.1376    16.3358    27.5062 C.3     
 167 C167          36.1243    17.3136    29.5472 C.2     
 168 N168          34.8726    16.8330    29.4096 N.am    
 169 O169          36.5825    17.5040    30.6539 O.2     
 170 C170          37.8454    16.6629    26.2166 C.2     
 171 O171          38.0296    15.7082    25.2912 O.3     
 172 C172          34.0657    16.5405    30.5969 C.3     
 173 C173          33.3662    17.8180    31.0655 C.3     
 174 C174          33.0322    15.4976    30.2573 C.2     
 175 C175          34.4138    18.8327    31.5280 C.3     
 176 C176          33.7143    20.1102    31.9967 C.3     
 177 C177          34.7619    21.1249    32.4592 C.3     
 178 N178          34.0903    22.3515    32.9092 N.3     
 179 N179          32.1711    15.0697    31.2017 N.am    
 180 O180          32.9753    15.0434    29.1342 O.2     
 181 C181          31.1664    14.0558    30.8716 C.3     
 182 C182          30.7676    13.3176    32.1234 C.2     
 183 C183          29.9363    14.7350    30.2663 C.3     
 184 C184          30.3090    15.3698    28.9513 C.ar    
 185 C185          30.1993    14.6447    27.7792 C.ar    
 186 C186          30.5409    15.2241    26.5726 C.ar    
 187 O187          31.2729    13.6096    33.1866 O.2     
 188 N188          29.8495    12.3329    32.0615 N.am    
 189 C189          29.4618    11.6152    33.2784 C.3     
 190 C190          30.7548    16.6782    28.9184 C.ar    
 191 C191          30.9938    16.5350    26.5375 C.ar    
 192 C192          31.0967    17.2626    27.7142 C.ar    
 193 O193          31.3308    17.1072    25.3518 O.3     
 194 C194          28.0763    11.0477    33.1071 C.2     
 195 C195          30.4510    10.4767    33.5360 C.3     
 196 C196          31.8338    11.0601    33.8333 C.3     
 197 C197          32.8229     9.9216    34.0910 C.3     
 198 N198          34.1470    10.4802    34.3757 N.pl3   
 199 C199          35.2043     9.6421    34.6401 C.2     
 200 N200          35.0190     8.2798    34.6374 N.pl3   
 201 N201          36.3823    10.1390    34.8934 N.2     
 202 N202          27.5085    10.3429    34.1057 N.am    
 203 O203          27.4722    11.2253    32.0705 O.2     
 204 C204          26.1616     9.7913    33.9392 C.3     
 205 C205          26.2475     8.4583    33.2414 C.2     
 206 C206          25.5125     9.6072    35.3124 C.3     
 207 C207          25.3160    10.9742    35.9709 C.3     
 208 C208          24.2904    11.7820    35.1732 C.3     
 209 N209          25.1241     7.7610    32.9798 N.am    
 210 O210          27.3274     8.0129    32.9154 O.2     
 211 C211          24.8123    10.7828    37.4029 C.3     
 212 O212          38.2472    17.7845    26.0157 O.2     
 213 C213          41.3563    19.8437    31.3954 C.3     
 214 N214          42.1291    24.1855    29.6417 N.am    
 215 C215          39.9292    24.2149    28.5733 C.3     
 216 C216          39.7644    25.7221    28.7788 C.3     
 217 S217          38.7637    26.4102    27.4314 S.3     
 218 C218          38.6814    28.1747    27.8443 C.3     
 219 C219          42.4036    25.3728    30.2174 C.2     
 220 O220          41.5284    25.9851    30.7918 O.2     
 221 C221          43.7982    25.9396    30.1474 C.3     
 222 N222          43.8475    27.2338    30.8431 N.am    
 223 C223          44.7941    27.1298    31.9686 C.3     
 224 C224          45.7533    25.9788    31.5749 C.3     
 225 C225          44.7852    24.9954    30.8656 C.3     
 226 C226          43.1444    28.3335    30.5072 C.2     
 227 O227          42.3420    28.2862    29.5990 O.2     
 228 C228          43.3552    29.6217    31.2602 C.3     
 229 C229          44.7682    30.1436    30.9924 C.3     
 230 N230          42.3750    30.6146    30.8132 N.am    
 231 O231          44.9640    30.2876    29.5843 O.3     
 232 C232          42.0177    31.6244    31.6311 C.2     
 233 O233          42.4390    31.6622    32.7678 O.2     
 234 C234          41.0947    32.7067    31.1333 C.3     
 235 C235          40.7304    33.6386    32.2908 C.3     
 236 C236          41.7947    33.5083    30.0341 C.3     
 237 C237          43.0733    34.0936    30.5761 C.2     
 238 O238          43.4434    33.8086    31.6897 O.2     
 239 C239          43.8899    35.0346    29.7283 C.3     
 240 C240          43.2726    36.4336    29.7798 C.3     
 241 C241          44.0287    37.3602    28.8256 C.3     
 242 C242          43.8196    36.8894    27.3849 C.3     
 243 C243          43.5015    38.7885    28.9770 C.3     
 244 N244          45.2617    35.0871    30.2400 N.am    
 245 C245          46.1617    34.1622    29.8514 C.2     
 246 O246          45.8359    33.2864    29.0783 O.2     
 247 C247          47.5728    34.2161    30.3777 C.3     
 248 C248          39.6971    34.6621    31.8157 C.3     
 249 C249          39.3328    35.5940    32.9732 C.3     
 250 C250          38.2995    36.6174    32.4982 C.3     
 251 N251          37.9507    37.5097    33.6065 N.pl3   
 252 C252          37.0344    38.5168    33.4159 C.2     
 253 N253          36.4454    38.6865    32.1853 N.pl3   
 254 N254          36.7240    39.3107    34.4020 N.2     
 255 H255          40.3226    23.8959    30.6672 H       
 256 H256          38.8424    21.8523    29.7210 H       
 257 H257          40.5591    19.6795    28.7939 H       
 258 H258          39.2207    19.5983    31.5360 H       
 259 H259          40.7735    17.5904    30.1267 H       
 260 H260          39.0048    17.5070    28.8667 H       
 261 H261          36.4490    18.3658    27.7192 H       
 262 H262          37.7317    15.6211    28.0756 H       
 263 H263          36.1619    15.9028    27.2854 H       
 264 H264          34.5062    16.6807    28.5245 H       
 265 H265          38.4889    15.9658    24.4801 H       
 266 H266          34.7111    16.1671    31.3919 H       
 267 H267          32.7905    18.2401    30.2418 H       
 268 H268          32.6974    17.5832    31.8935 H       
 269 H269          34.9895    18.4106    32.3517 H       
 270 H270          35.0826    19.0675    30.7000 H       
 271 H271          33.1386    20.5323    31.1730 H       
 272 H272          33.0455    19.8754    32.8247 H       
 273 H273          35.3376    20.7028    33.2829 H       
 274 H274          35.4307    21.3597    31.6312 H       
 275 H275          33.4170    22.1503    33.6332 H       
 276 H276          34.7613    23.0379    33.2200 H       
 277 H277          32.2166    15.4330    32.0999 H       
 278 H278          31.5837    13.3516    30.1518 H       
 279 H279          29.1550    13.9927    30.1029 H       
 280 H280          29.5716    15.5019    30.9496 H       
 281 H281          29.8467    13.6242    27.8070 H       
 282 H282          30.4557    14.6571    25.6574 H       
 283 H283          29.4454    12.0993    31.2111 H       
 284 H284          29.4708    12.3028    34.1241 H       
 285 H285          30.8354    17.2440    29.8348 H       
 286 H286          31.4487    18.2833    27.6895 H       
 287 H287          30.5978    17.5571    24.9098 H       
 288 H288          30.1136     9.8885    34.3895 H       
 289 H289          30.5078     9.8383    32.6544 H       
 290 H290          32.1711    11.6483    32.9799 H       
 291 H291          31.7769    11.6985    34.7150 H       
 292 H292          32.4856     9.3334    34.9444 H       
 293 H293          32.8798     9.2832    33.2094 H       
 294 H294          34.2778    11.4413    34.3775 H       
 295 H295          34.1423     7.9099    34.4490 H       
 296 H296          35.7649     7.6884    34.8240 H       
 297 H297          37.1283     9.5477    35.0800 H       
 298 H298          27.9917    10.2009    34.9347 H       
 299 H299          25.5598    10.4760    33.3417 H       
 300 H300          24.5454     9.1184    35.1945 H       
 301 H301          26.1570     8.9911    35.9393 H       
 302 H302          26.2657    11.5090    35.9883 H       
 303 H303          23.3407    11.2472    35.1558 H       
 304 H304          24.1504    12.7558    35.6424 H       
 305 H305          24.6492    11.9184    34.1530 H       
 306 H306          24.2604     8.1172    33.2405 H       
 307 H307          25.1794     6.9031    32.5307 H       
 308 H308          23.9090    10.1729    37.3918 H       
 309 H309          25.5801    10.2842    37.9945 H       
 310 H310          24.5890    11.7549    37.8425 H       
 311 H311          41.3129    20.9285    31.4925 H       
 312 H312          41.5465    19.3988    32.3722 H       
 313 H313          42.1590    19.5720    30.7099 H       
 314 H314          42.8291    23.6958    29.1823 H       
 315 H315          40.4261    24.0303    27.6209 H       
 316 H316          38.9485    23.7393    28.5697 H       
 317 H317          39.2676    25.9067    29.7313 H       
 318 H318          40.7452    26.1977    28.7825 H       
 319 H319          38.2116    28.2979    28.8201 H       
 320 H320          39.6892    28.5889    27.8713 H       
 321 H321          38.0938    28.6974    27.0896 H       
 322 H322          44.0946    26.0669    29.1062 H       
 323 H323          45.3475    28.0614    32.0861 H       
 324 H324          44.2639    26.8838    32.8886 H       
 325 H325          46.5246    26.3302    30.8895 H       
 326 H326          46.1973    25.5208    32.4587 H       
 327 H327          44.2640    24.3745    31.5943 H       
 328 H328          45.3220    24.3781    30.1452 H       
 329 H329          43.2301    29.4430    32.3282 H       
 330 H330          44.8963    31.1111    31.4779 H       
 331 H331          45.4976    29.4381    31.3904 H       
 332 H332          41.9833    30.5452    29.9286 H       
 333 H333          45.8405    30.6154    29.3405 H       
 334 H334          40.1878    32.2545    30.7317 H       
 335 H335          40.3124    33.0539    33.1103 H       
 336 H336          41.6249    34.1580    32.6344 H       
 337 H337          42.0230    32.8515    29.1947 H       
 338 H338          41.1404    34.3129    29.6984 H       
 339 H339          43.8999    34.6795    28.6978 H       
 340 H340          42.2258    36.3800    29.4807 H       
 341 H341          43.3408    36.8237    30.7953 H       
 342 H342          45.0921    37.3382    29.0643 H       
 343 H343          42.7563    36.9114    27.1462 H       
 344 H344          44.3583    37.5495    26.7051 H       
 345 H345          44.1952    35.8719    27.2771 H       
 346 H346          42.4610    38.8278    28.6548 H       
 347 H347          43.5701    39.0922    30.0216 H       
 348 H348          44.0979    39.4629    28.3626 H       
 349 H349          45.5222    35.7876    30.8583 H       
 350 H350          47.6761    35.0648    31.0539 H       
 351 H351          47.7957    33.2943    30.9150 H       
 352 H352          48.2671    34.3284    29.5450 H       
 353 H353          40.1150    35.2468    30.9963 H       
 354 H354          38.8025    34.1426    31.4722 H       
 355 H355          38.9149    35.0093    33.7927 H       
 356 H356          40.2274    36.1134    33.3168 H       
 357 H357          38.7175    37.2021    31.6787 H       
 358 H358          37.4050    36.0980    32.1546 H       
 359 H359          38.3663    37.3900    34.4747 H       
 360 H360          36.6763    38.0957    31.4514 H       
 361 H361          35.7989    39.3971    32.0508 H       
 362 H362          36.0775    40.0213    34.2676 H       
@<TRIPOS>BOND
   1    1    2 1
   2    1   69 1
   3    1   70 1
   4    1   71 1
   5    2    3 1
   6    2   72 1
   7    2   73 1
   8    3    4 1
   9    3   74 1
  10    3   75 1
  11    4    5 1
  12    4   76 1
  13    4   77 1
  14    5    6 1
  15    5   78 1
  16    5   79 1
  17    6    7 1
  18    6   80 1
  19    6   81 1
  20    7    8 1
  21    7   82 1
  22    7   83 1
  23    8    9 1
  24    8   84 1
  25    8   85 1
  26    9   10 1
  27    9   86 1
  28    9   87 1
  29   10   11 1
  30   10   88 1
  31   10   89 1
  32   11   12 1
  33   11   90 1
  34   11   91 1
  35   12   13 1
  36   12   92 1
  37   12   93 1
  38   13   14 1
  39   13   94 1
  40   13   95 1
  41   14   15 1
  42   14   96 1
  43   14   97 1
  44   15   16 1
  45   15   98 1
  46   15   99 1
  47   16   17 am
  48   16   18 2
  49   17   19 1
  50   17   20 1
  51   19   21 1
  52   19   22 1
  53   19  100 1
  54   21   26 am
  55   21   27 2
  56   22   23 1
  57   22  101 1
  58   22  102 1
  59   23   24 1
  60   23  103 1
  61   23  104 1
  62   24   25 1
  63   25  105 1
  64   25  106 1
  65   25  107 1
  66   26   28 1
  67   26  108 1
  68   28   29 1
  69   28  109 1
  70   28  110 1
  71   29   30 am
  72   29   31 2
  73   30   32 1
  74   30  111 1
  75   32   33 1
  76   32   37 1
  77   32  112 1
  78   33   34 1
  79   33  113 1
  80   33  114 1
  81   34   35 ar
  82   34   38 ar
  83   35   41 ar
  84   35  115 1
  85   36   37 am
  86   36   43 1
  87   36  116 1
  88   37   42 2
  89   38   39 ar
  90   38  117 1
  91   39   40 ar
  92   39  118 1
  93   40   41 ar
  94   40   44 1
  95   41  119 1
  96   43   45 1
  97   43   46 1
  98   43  120 1
  99   44  121 1
 100   45   49 1
 101   45  122 1
 102   45  123 1
 103   46   47 am
 104   46   48 2
 105   47   53 1
 106   47  124 1
 107   49   50 1
 108   49  125 1
 109   49  126 1
 110   50   51 2
 111   50   52 am
 112   52  127 1
 113   52  128 1
 114   53   54 1
 115   53   55 1
 116   53  129 1
 117   54   56 1
 118   54  130 1
 119   54  131 1
 120   55   60 am
 121   55   61 2
 122   56   57 1
 123   56  132 1
 124   56  133 1
 125   57   58 1
 126   57  134 1
 127   57  135 1
 128   58   59 1
 129   58  136 1
 130   58  137 1
 131   59  138 1
 132   59  139 1
 133   60   62 1
 134   60  140 1
 135   62   63 1
 136   62   64 1
 137   62  141 1
 138   63   65 1
 139   63  142 1
 140   63  143 1
 141   64  144 1
 142   64  145 1
 143   64  146 1
 144   65   66 1
 145   65  147 1
 146   65  148 1
 147   66   67 1
 148   66  149 1
 149   66  150 1
 150   67   68 1
 151   67  151 1
 152   67  152 1
 153   68  153 1
 154   68  154 1
 155  155  156 1
 156  155  214 1
 157  155  215 1
 158  155  255 1
 159  156  157 am
 160  156  158 2
 161  157  159 1
 162  157  256 1
 163  159  160 1
 164  159  163 1
 165  159  257 1
 166  160  161 1
 167  160  213 1
 168  160  258 1
 169  161  259 1
 170  162  163 am
 171  162  165 1
 172  162  260 1
 173  163  164 2
 174  165  166 1
 175  165  167 1
 176  165  261 1
 177  166  170 1
 178  166  262 1
 179  166  263 1
 180  167  168 am
 181  167  169 2
 182  168  172 1
 183  168  264 1
 184  170  171 1
 185  170  212 2
 186  171  265 1
 187  172  173 1
 188  172  174 1
 189  172  266 1
 190  173  175 1
 191  173  267 1
 192  173  268 1
 193  174  179 am
 194  174  180 2
 195  175  176 1
 196  175  269 1
 197  175  270 1
 198  176  177 1
 199  176  271 1
 200  176  272 1
 201  177  178 1
 202  177  273 1
 203  177  274 1
 204  178  275 1
 205  178  276 1
 206  179  181 1
 207  179  277 1
 208  181  182 1
 209  181  183 1
 210  181  278 1
 211  182  187 2
 212  182  188 am
 213  183  184 1
 214  183  279 1
 215  183  280 1
 216  184  185 ar
 217  184  190 ar
 218  185  186 ar
 219  185  281 1
 220  186  191 ar
 221  186  282 1
 222  188  189 1
 223  188  283 1
 224  189  194 1
 225  189  195 1
 226  189  284 1
 227  190  192 ar
 228  190  285 1
 229  191  192 ar
 230  191  193 1
 231  192  286 1
 232  193  287 1
 233  194  202 am
 234  194  203 2
 235  195  196 1
 236  195  288 1
 237  195  289 1
 238  196  197 1
 239  196  290 1
 240  196  291 1
 241  197  198 1
 242  197  292 1
 243  197  293 1
 244  198  199 1
 245  198  294 1
 246  199  200 1
 247  199  201 2
 248  200  295 1
 249  200  296 1
 250  201  297 1
 251  202  204 1
 252  202  298 1
 253  204  205 1
 254  204  206 1
 255  204  299 1
 256  205  210 2
 257  205  209 am
 258  206  207 1
 259  206  300 1
 260  206  301 1
 261  207  208 1
 262  207  211 1
 263  207  302 1
 264  208  303 1
 265  208  304 1
 266  208  305 1
 267  209  306 1
 268  209  307 1
 269  211  308 1
 270  211  309 1
 271  211  310 1
 272  213  311 1
 273  213  312 1
 274  213  313 1
 275  214  219 am
 276  214  314 1
 277  215  216 1
 278  215  315 1
 279  215  316 1
 280  216  217 1
 281  216  317 1
 282  216  318 1
 283  217  218 1
 284  218  319 1
 285  218  320 1
 286  218  321 1
 287  219  220 2
 288  219  221 1
 289  221  222 1
 290  221  225 1
 291  221  322 1
 292  222  223 1
 293  222  226 am
 294  223  224 1
 295  223  323 1
 296  223  324 1
 297  224  225 1
 298  224  325 1
 299  224  326 1
 300  225  327 1
 301  225  328 1
 302  226  227 2
 303  226  228 1
 304  228  229 1
 305  228  230 1
 306  228  329 1
 307  229  231 1
 308  229  330 1
 309  229  331 1
 310  230  232 am
 311  230  332 1
 312  231  333 1
 313  232  233 2
 314  232  234 1
 315  234  235 1
 316  234  236 1
 317  234  334 1
 318  235  248 1
 319  235  335 1
 320  235  336 1
 321  236  237 1
 322  236  337 1
 323  236  338 1
 324  237  238 2
 325  237  239 1
 326  239  240 1
 327  239  244 1
 328  239  339 1
 329  240  241 1
 330  240  340 1
 331  240  341 1
 332  241  242 1
 333  241  243 1
 334  241  342 1
 335  242  343 1
 336  242  344 1
 337  242  345 1
 338  243  346 1
 339  243  347 1
 340  243  348 1
 341  244  245 am
 342  244  349 1
 343  245  246 2
 344  245  247 1
 345  247  350 1
 346  247  351 1
 347  247  352 1
 348  248  249 1
 349  248  353 1
 350  248  354 1
 351  249  250 1
 352  249  355 1
 353  249  356 1
 354  250  251 1
 355  250  357 1
 356  250  358 1
 357  251  252 1
 358  251  359 1
 359  252  253 1
 360  252  254 2
 361  253  360 1
 362  253  361 1
 363  254  362 1

#	End of record

