#	Name: ASD02039361
#	Creating user name:	WinNT
#	Creation time:	15. 06. 2019 20:18

#	Modifying user name:	WinNT
#	Modification time:	15. 06. 2019 20:18

#	Program:	/corina/corina34_cracker 3.40 0067  02.08.2006

@<TRIPOS>MOLECULE
ASD02039361
  50   52    0    0    0
SMALL
NO_CHARGES


@<TRIPOS>ATOM
   1 C1            -0.1345     1.5595    -0.1872 C.ar    
   2 C2            -0.1559     0.1782    -0.0590 C.ar    
   3 C3            -1.3627    -0.4920    -0.1423 C.ar    
   4 C4            -2.5119     1.4849    -0.4578 C.ar    
   5 C5            -1.3326     2.2230    -0.3899 C.ar    
   6 C6            -3.8039     2.1808    -0.6751 C.ar    
   7 C7             1.1630     2.3212    -0.1015 C.3     
   8 N8             1.8164     2.3220    -1.4127 N.am    
   9 C9             1.4075     3.2892    -2.4343 C.3     
  10 C10            2.7935     1.4328    -1.6792 C.2     
  11 C11            3.1433     0.4028    -0.6857 C.2     
  12 C12            4.1488    -0.5129    -0.7932 C.2     
  13 N13            2.5275     0.1958     0.5064 N.2     
  14 C14            3.1089    -0.7981     1.1135 C.2     
  15 N15            4.1202    -1.2620     0.3341 N.pl3   
  16 O16            3.3866     1.4808    -2.7400 O.2     
  17 C17            5.0184    -2.3739     0.6554 C.3     
  18 C18           -4.9888     1.4503    -0.7443 C.ar    
  19 C19            2.5762     4.2262    -2.7462 C.3     
  20 C20            0.9972     2.5447    -3.7064 C.3     
  21 N21           -2.4879     0.1633    -0.3418 N.ar    
  22 C22           -3.8376     3.5676    -0.8049 C.ar    
  23 C23           -5.0437     4.2103    -1.0072 C.ar    
  24 C24           -6.2164     3.4787    -1.0807 C.ar    
  25 C25           -6.1882     2.1022    -0.9466 C.ar    
  26 Cl26          -5.0886     5.9382    -1.1687 Cl      
  27 C27           -7.4690     1.3124    -1.0279 C.3     
  28 H28            0.7612    -0.3684     0.1041 H       
  29 H29           -1.3828    -1.5672    -0.0429 H       
  30 H30           -1.3536     3.2987    -0.4842 H       
  31 H31            0.9621     3.3478     0.2050 H       
  32 H32            1.8163     1.8450     0.6297 H       
  33 H33            0.5631     3.8717    -2.0658 H       
  34 H34            4.8357    -0.6200    -1.6197 H       
  35 H35            2.8337    -1.1889     2.0820 H       
  36 H36            4.5915    -3.3050     0.2829 H       
  37 H37            5.9877    -2.2052     0.1863 H       
  38 H38            5.1441    -2.4386     1.7362 H       
  39 H39           -4.9684     0.3755    -0.6402 H       
  40 H40            3.4480     3.6372    -3.0312 H       
  41 H41            2.3014     4.8890    -3.5668 H       
  42 H42            2.8117     4.8198    -1.8629 H       
  43 H43            0.1124     1.9409    -3.5046 H       
  44 H44            0.7737     3.2653    -4.4930 H       
  45 H45            1.8132     1.8974    -4.0277 H       
  46 H46           -2.9230     4.1389    -0.7472 H       
  47 H47           -7.1573     3.9847    -1.2389 H       
  48 H48           -7.6539     1.0255    -2.0631 H       
  49 H49           -7.3833     0.4168    -0.4125 H       
  50 H50           -8.2962     1.9235    -0.6669 H       
@<TRIPOS>BOND
   1    1    2 ar
   2    1    7 1
   3    1    5 ar
   4    2    3 ar
   5    2   28 1
   6    3   21 ar
   7    3   29 1
   8    4    5 ar
   9    4    6 1
  10    4   21 ar
  11    5   30 1
  12    6   18 ar
  13    6   22 ar
  14    7    8 1
  15    7   31 1
  16    7   32 1
  17    8    9 1
  18    8   10 am
  19    9   20 1
  20    9   19 1
  21    9   33 1
  22   10   11 1
  23   10   16 2
  24   11   12 2
  25   11   13 1
  26   12   15 1
  27   12   34 1
  28   13   14 2
  29   14   15 1
  30   14   35 1
  31   15   17 1
  32   17   36 1
  33   17   37 1
  34   17   38 1
  35   18   25 ar
  36   18   39 1
  37   19   40 1
  38   19   41 1
  39   19   42 1
  40   20   43 1
  41   20   44 1
  42   20   45 1
  43   22   23 ar
  44   22   46 1
  45   23   24 ar
  46   23   26 1
  47   24   25 ar
  48   24   47 1
  49   25   27 1
  50   27   48 1
  51   27   49 1
  52   27   50 1

#	End of record

