#	Name: ASD00990017
#	Creating user name:	WinNT
#	Creation time:	15. 06. 2019 18:54

#	Modifying user name:	WinNT
#	Modification time:	15. 06. 2019 18:54

#	Program:	/corina/corina34_cracker 3.40 0067  02.08.2006

@<TRIPOS>MOLECULE
ASD00990017
  55   58    0    0    0
SMALL
NO_CHARGES


@<TRIPOS>ATOM
   1 C1            -2.8961     4.6285     1.3267 C.2     
   2 C2            -3.1586     5.5737     2.4706 C.3     
   3 O3            -3.8245     4.1125     0.7412 O.2     
   4 N4            -1.6298     4.3608     0.9507 N.am    
   5 C5            -0.5134     5.0719     1.5786 C.3     
   6 C6            -1.3698     3.3587    -0.0858 C.3     
   7 C7            -1.2611     4.0389    -1.4262 C.2     
   8 N8            -2.2698     4.3649    -2.1804 N.2     
   9 C9            -1.8184     4.9597    -3.3148 C.ar    
  10 C10           -0.4161     4.9917    -3.2303 C.ar    
  11 N11           -0.0942     4.4069    -2.0210 N.pl3   
  12 C12           -2.4525     5.4927    -4.4401 C.ar    
  13 C13           -1.6992     6.0429    -5.4531 C.ar    
  14 C14           -0.3127     6.0717    -5.3650 C.ar    
  15 C15            0.3279     5.5499    -4.2602 C.ar    
  16 C16            1.2540     4.2150    -1.4809 C.3     
  17 C17            1.8489     2.9218    -2.0420 C.3     
  18 O18            3.1153     2.6744    -1.4280 O.3     
  19 C19            3.7084     1.4288    -1.8003 C.3     
  20 O20            4.2283     1.5267    -3.1278 O.3     
  21 C21            5.4413     2.2759    -3.2232 C.3     
  22 Cl22           0.6191     6.7687    -6.6532 Cl      
  23 Cl23          -2.4876     6.7050    -6.8509 Cl      
  24 O24           -6.6931     5.4857     3.2252 O.3     
  25 C25           -5.4484     4.9921     3.3171 C.2     
  26 N26           -4.6024     5.7738     2.6173 N.am    
  27 C27           -5.3525     6.8085     2.0589 C.ar    
  28 C28           -6.6734     6.6038     2.4585 C.ar    
  29 C29           -5.0303     7.8914     1.2568 C.ar    
  30 C30           -6.0212     8.7676     0.8539 C.ar    
  31 C31           -7.3324     8.5647     1.2503 C.ar    
  32 C32           -7.6599     7.4871     2.0504 C.ar    
  33 O33           -5.1327     3.9942     3.9362 O.2     
  34 Cl34          -5.6205    10.1255    -0.1506 Cl      
  35 H35           -2.7550     5.1514     3.3909 H       
  36 H36           -2.6778     6.5309     2.2687 H       
  37 H37           -0.1689     4.5119     2.4479 H       
  38 H38            0.3029     5.1706     0.8631 H       
  39 H39           -0.8437     6.0623     1.8919 H       
  40 H40           -0.4366     2.8408     0.1355 H       
  41 H41           -2.1881     2.6390    -0.1089 H       
  42 H42           -3.5297     5.4729    -4.5152 H       
  43 H43            1.4057     5.5753    -4.1972 H       
  44 H44            1.8832     5.0581    -1.7663 H       
  45 H45            1.2042     4.1503    -0.3940 H       
  46 H46            1.1751     2.0911    -1.8325 H       
  47 H47            1.9806     3.0201    -3.1195 H       
  48 H48            4.5175     1.1908    -1.1099 H       
  49 H49            2.9551     0.6419    -1.7623 H       
  50 H50            6.2094     1.8032    -2.6110 H       
  51 H51            5.7706     2.3036    -4.2619 H       
  52 H52            5.2693     3.2925    -2.8693 H       
  53 H53           -4.0079     8.0508     0.9473 H       
  54 H54           -8.1025     9.2522     0.9328 H       
  55 H55           -8.6840     7.3328     2.3568 H       
@<TRIPOS>BOND
   1    1    2 1
   2    1    3 2
   3    1    4 am
   4    2   26 1
   5    2   35 1
   6    2   36 1
   7    4    5 1
   8    4    6 1
   9    5   37 1
  10    5   38 1
  11    5   39 1
  12    6    7 1
  13    6   40 1
  14    6   41 1
  15    7    8 2
  16    7   11 1
  17    8    9 1
  18    9   10 ar
  19    9   12 ar
  20   10   11 1
  21   10   15 ar
  22   11   16 1
  23   12   13 ar
  24   12   42 1
  25   13   14 ar
  26   13   23 1
  27   14   15 ar
  28   14   22 1
  29   15   43 1
  30   16   17 1
  31   16   44 1
  32   16   45 1
  33   17   18 1
  34   17   46 1
  35   17   47 1
  36   18   19 1
  37   19   20 1
  38   19   48 1
  39   19   49 1
  40   20   21 1
  41   21   50 1
  42   21   51 1
  43   21   52 1
  44   24   25 1
  45   24   28 1
  46   25   26 am
  47   25   33 2
  48   26   27 1
  49   27   28 ar
  50   27   29 ar
  51   28   32 ar
  52   29   30 ar
  53   29   53 1
  54   30   31 ar
  55   30   34 1
  56   31   32 ar
  57   31   54 1
  58   32   55 1

#	End of record

