#	Name: ASD01914962
#	Creating user name:	WinNT
#	Creation time:	15. 06. 2019 20:04

#	Modifying user name:	WinNT
#	Modification time:	15. 06. 2019 20:04

#	Program:	/corina/corina34_cracker 3.40 0067  02.08.2006

@<TRIPOS>MOLECULE
ASD01914962
  60   64    0    0    0
SMALL
NO_CHARGES


@<TRIPOS>ATOM
   1 C1            -0.0041     1.3297    -0.0209 C.2     
   2 N2             0.0148     0.0576     0.3181 N.2     
   3 C3             1.3067     1.7205    -0.3419 C.2     
   4 C4             2.1160     0.6339    -0.1829 C.2     
   5 N5             1.3333    -0.4055     0.2255 N.pl3   
   6 C6            -1.2057     2.2003    -0.0630 C.ar    
   7 C7            -2.4548     1.6847     0.2758 C.ar    
   8 C8            -3.5688     2.4986     0.2349 C.ar    
   9 C9            -3.4466     3.8238    -0.1420 C.ar    
  10 C10           -2.2089     4.3409    -0.4794 C.ar    
  11 C11           -1.0874     3.5374    -0.4359 C.ar    
  12 C12            3.5774     0.5908    -0.4124 C.ar    
  13 C13            1.7911    -1.7663     0.5166 C.3     
  14 C14            2.0699    -1.8978     1.9917 C.2     
  15 N15            2.5051    -3.0706     2.4934 N.am    
  16 O16            1.9027    -0.9483     2.7275 O.2     
  17 C17            2.7868    -3.2322     3.9298 C.3     
  18 C18            1.8507    -4.3091     4.4817 C.3     
  19 N19            1.8342    -5.4756     3.6098 N.am    
  20 C20            2.1764    -5.4622     2.3207 C.2     
  21 C21            2.7121    -4.2425     1.6296 C.3     
  22 C22            4.1819     1.5240    -1.2548 C.ar    
  23 C23            1.4116    -6.7531     4.1891 C.3     
  24 C24           -0.0793    -6.9068     4.0328 C.ar    
  25 C25           -0.5971    -7.5121     2.9031 C.ar    
  26 O26            2.0457    -6.4817     1.6769 O.2     
  27 C27            5.5448     1.4786    -1.4647 C.ar    
  28 C28            6.3116     0.5101    -0.8418 C.ar    
  29 C29            5.7180    -0.4185    -0.0056 C.ar    
  30 C30            4.3569    -0.3796     0.2173 C.ar    
  31 C31           -0.9289    -6.4477     5.0219 C.ar    
  32 C32           -2.2966    -6.5887     4.8786 C.ar    
  33 C33           -2.8147    -7.1885     3.7460 C.ar    
  34 C34           -1.9648    -7.6531     2.7597 C.ar    
  35 H35            1.6180     2.7052    -0.6579 H       
  36 H36           -2.5513     0.6499     0.5695 H       
  37 H37           -4.5376     2.0999     0.4973 H       
  38 H38           -4.3210     4.4570    -0.1734 H       
  39 H39           -2.1191     5.3763    -0.7729 H       
  40 H40           -0.1214     3.9422    -0.6992 H       
  41 H41            1.0187    -2.4791     0.2279 H       
  42 H42            2.7026    -1.9710    -0.0451 H       
  43 H43            3.8233    -3.5394     4.0691 H       
  44 H44            2.6091    -2.2898     4.4478 H       
  45 H45            2.1917    -4.6071     5.4732 H       
  46 H46            0.8419    -3.9032     4.5571 H       
  47 H47            2.1891    -4.0993     0.6841 H       
  48 H48            3.7789    -4.3673     1.4435 H       
  49 H49            3.5842     2.2803    -1.7419 H       
  50 H50            1.9171    -7.5703     3.6745 H       
  51 H51            1.6702    -6.7752     5.2477 H       
  52 H52            0.0668    -7.8745     2.1322 H       
  53 H53            6.0140     2.2003    -2.1170 H       
  54 H54            7.3781     0.4786    -1.0093 H       
  55 H55            6.3219    -1.1725     0.4772 H       
  56 H56            3.8946    -1.1049     0.8705 H       
  57 H57           -0.5242    -5.9791     5.9068 H       
  58 H58           -2.9603    -6.2306     5.6516 H       
  59 H59           -3.8831    -7.2990     3.6342 H       
  60 H60           -2.3695    -8.1217     1.8749 H       
@<TRIPOS>BOND
   1    1    2 2
   2    1    3 1
   3    1    6 1
   4    2    5 1
   5    3    4 2
   6    3   35 1
   7    4    5 1
   8    4   12 1
   9    5   13 1
  10    6    7 ar
  11    6   11 ar
  12    7    8 ar
  13    7   36 1
  14    8    9 ar
  15    8   37 1
  16    9   10 ar
  17    9   38 1
  18   10   11 ar
  19   10   39 1
  20   11   40 1
  21   12   22 ar
  22   12   30 ar
  23   13   14 1
  24   13   41 1
  25   13   42 1
  26   14   15 am
  27   14   16 2
  28   15   17 1
  29   15   21 1
  30   17   18 1
  31   17   43 1
  32   17   44 1
  33   18   19 1
  34   18   45 1
  35   18   46 1
  36   19   20 am
  37   19   23 1
  38   20   21 1
  39   20   26 2
  40   21   47 1
  41   21   48 1
  42   22   27 ar
  43   22   49 1
  44   23   24 1
  45   23   50 1
  46   23   51 1
  47   24   25 ar
  48   24   31 ar
  49   25   34 ar
  50   25   52 1
  51   27   28 ar
  52   27   53 1
  53   28   29 ar
  54   28   54 1
  55   29   30 ar
  56   29   55 1
  57   30   56 1
  58   31   32 ar
  59   31   57 1
  60   32   33 ar
  61   32   58 1
  62   33   34 ar
  63   33   59 1
  64   34   60 1

#	End of record

