#	Name: ASD03240202
#	Creating user name:	WinNT
#	Creation time:	15. 06. 2019 20:34

#	Modifying user name:	WinNT
#	Modification time:	15. 06. 2019 20:34

#	Program:	/corina/corina34_cracker 3.40 0067  02.08.2006

@<TRIPOS>MOLECULE
ASD03240202
  37   39    0    0    0
SMALL
NO_CHARGES


@<TRIPOS>ATOM
   1 C1             1.3103    -0.8400     0.6151 C.ar    
   2 N2             0.3624    -0.4756    -0.2264 N.ar    
   3 C3             0.4515     0.6235    -0.9500 C.ar    
   4 C4             1.5543     1.4475    -0.8554 C.ar    
   5 C5             2.5874     1.1003     0.0263 C.ar    
   6 C6             2.4486    -0.0767     0.7751 C.ar    
   7 C7             3.7848     1.9479     0.1618 C.2     
   8 C8             3.6701     3.2901     0.1086 C.2     
   9 C9             2.3185     3.9750     0.0934 C.3     
  10 C10            2.3109     5.0800     1.1531 C.3     
  11 C11            3.3990     6.1115     0.8433 C.3     
  12 C12            4.7477     5.4208     0.8564 C.2     
  13 C13            4.8600     4.1739     0.0681 C.2     
  14 O14            5.8562     3.8943    -0.5751 O.2     
  15 C15            5.7909     5.9146     1.5532 C.2     
  16 C16            5.6904     7.2391     2.1903 C.ar    
  17 C17            6.3561     7.5130     3.3933 C.ar    
  18 C18            6.2334     8.7677     3.9541 C.ar    
  19 N19            5.5032     9.7007     3.3748 N.ar    
  20 C20            4.8603     9.4865     2.2433 C.ar    
  21 C21            4.9310     8.2636     1.6081 C.ar    
  22 H22            1.1919    -1.7463     1.1904 H       
  23 H23           -0.3498     0.8821    -1.6263 H       
  24 H24            1.6206     2.3456    -1.4516 H       
  25 H25            3.2205    -0.3812     1.4663 H       
  26 H26            4.7544     1.4939     0.3037 H       
  27 H27            2.1411     4.4109    -0.8898 H       
  28 H28            1.5382     3.2480     0.3185 H       
  29 H29            1.3377     5.5709     1.1568 H       
  30 H30            2.4967     4.6418     2.1337 H       
  31 H31            3.2208     6.5458    -0.1405 H       
  32 H32            3.3835     6.8967     1.5992 H       
  33 H33            6.7003     5.3391     1.6443 H       
  34 H34            6.9553     6.7536     3.8737 H       
  35 H35            6.7423     8.9888     4.8807 H       
  36 H36            4.2738    10.2807     1.8056 H       
  37 H37            4.4022     8.0954     0.6815 H       
@<TRIPOS>BOND
   1    1    2 ar
   2    1    6 ar
   3    1   22 1
   4    2    3 ar
   5    3    4 ar
   6    3   23 1
   7    4    5 ar
   8    4   24 1
   9    5    6 ar
  10    5    7 1
  11    6   25 1
  12    7    8 2
  13    7   26 1
  14    8    9 1
  15    8   13 1
  16    9   10 1
  17    9   27 1
  18    9   28 1
  19   10   11 1
  20   10   29 1
  21   10   30 1
  22   11   12 1
  23   11   31 1
  24   11   32 1
  25   12   13 1
  26   12   15 2
  27   13   14 2
  28   15   16 1
  29   15   33 1
  30   16   17 ar
  31   16   21 ar
  32   17   18 ar
  33   17   34 1
  34   18   19 ar
  35   18   35 1
  36   19   20 ar
  37   20   21 ar
  38   20   36 1
  39   21   37 1

#	End of record

