#	Name: ASD01140021
#	Creating user name:	WinNT
#	Creation time:	15. 06. 2019 18:59

#	Modifying user name:	WinNT
#	Modification time:	15. 06. 2019 18:59

#	Program:	/corina/corina34_cracker 3.40 0067  02.08.2006

@<TRIPOS>MOLECULE
ASD01140021
  43   45    0    0    0
SMALL
NO_CHARGES


@<TRIPOS>ATOM
   1 C1            -0.0511     1.4507    -0.7341 C.ar    
   2 C2            -0.2383     0.1903    -1.2934 C.ar    
   3 C3            -1.4769    -0.4204    -1.2090 C.ar    
   4 C4            -2.5317     0.2162    -0.5710 C.ar    
   5 C5            -2.3443     1.4632    -0.0130 C.ar    
   6 C6            -1.1038     2.0782    -0.0915 C.ar    
   7 C7            -3.8632    -0.4865    -0.5164 C.3     
   8 N8            -4.7160     0.1083     0.5173 N.3     
   9 C9            -4.8053     1.5649     0.3287 C.3     
  10 C10           -3.4585     2.1858     0.7003 C.3     
  11 H11           -4.3564    -0.3982    -1.4844 H       
  12 C12           -3.6404    -1.9662    -0.1974 C.3     
  13 C13           -3.0947    -2.1201     1.2030 C.2     
  14 C14           -3.9770    -2.8454     1.8854 C.2     
  15 C15           -5.1022    -3.1946     1.0141 C.2     
  16 O16           -4.9090    -2.6791    -0.2144 O.3     
  17 O17           -6.0669    -3.8529     1.3505 O.2     
  18 H18           -2.9519    -2.4059    -0.9190 H       
  19 C19           -3.8405    -3.2458     3.3318 C.3     
  20 C20           -6.0507    -0.5055     0.5160 C.3     
  21 O21            1.1619     2.0603    -0.8137 O.3     
  22 O22            0.7917    -0.4384    -1.9206 O.3     
  23 C23            1.2786     3.3533    -0.2165 C.3     
  24 C24            0.5250    -1.7301    -2.4705 C.3     
  25 H25           -1.6237    -1.3985    -1.6427 H       
  26 H26           -0.9608     3.0561     0.3438 H       
  27 H27           -5.0352     1.7858    -0.7136 H       
  28 H28           -5.5856     1.9704     0.9727 H       
  29 H29           -3.3091     2.1081     1.7772 H       
  30 H30           -3.4522     3.2366     0.4105 H       
  31 H31           -2.1651    -1.7184     1.5785 H       
  32 H32           -4.2945    -2.4829     3.9644 H       
  33 H33           -4.3438    -4.1989     3.4941 H       
  34 H34           -2.7846    -3.3450     3.5833 H       
  35 H35           -6.0260    -1.4299     1.0931 H       
  36 H36           -6.7676     0.1830     0.9633 H       
  37 H37           -6.3486    -0.7250    -0.5092 H       
  38 H38            0.5753     4.0375    -0.6911 H       
  39 H39            1.0554     3.2833     0.8481 H       
  40 H40            2.2943     3.7253    -0.3511 H       
  41 H41           -0.2672    -1.6515    -3.2151 H       
  42 H42            1.4284    -2.1183    -2.9408 H       
  43 H43            0.2103    -2.4057    -1.6752 H       
@<TRIPOS>BOND
   1    1    2 ar
   2    1   21 1
   3    1    6 ar
   4    2    3 ar
   5    2   22 1
   6    3    4 ar
   7    3   25 1
   8    4    5 ar
   9    4    7 1
  10    5    6 ar
  11    5   10 1
  12    6   26 1
  13    7    8 1
  14    7   11 1
  15    7   12 1
  16    8    9 1
  17    8   20 1
  18    9   10 1
  19    9   27 1
  20    9   28 1
  21   10   29 1
  22   10   30 1
  23   12   13 1
  24   12   18 1
  25   12   16 1
  26   13   14 2
  27   13   31 1
  28   14   15 1
  29   14   19 1
  30   15   16 1
  31   15   17 2
  32   19   32 1
  33   19   33 1
  34   19   34 1
  35   20   35 1
  36   20   36 1
  37   20   37 1
  38   21   23 1
  39   22   24 1
  40   23   38 1
  41   23   39 1
  42   23   40 1
  43   24   41 1
  44   24   42 1
  45   24   43 1

#	End of record

