#	Name: ASD01900075
#	Creating user name:	WinNT
#	Creation time:	15. 06. 2019 19:51

#	Modifying user name:	WinNT
#	Modification time:	15. 06. 2019 19:51

#	Program:	/corina/corina34_cracker 3.40 0067  02.08.2006

@<TRIPOS>MOLECULE
ASD01900075
  41   44    0    0    0
SMALL
NO_CHARGES


@<TRIPOS>ATOM
   1 C1            -0.0167     1.3786     0.0096 C.ar    
   2 C2             0.0021    -0.0041     0.0020 C.ar    
   3 C3             1.2121    -0.6796    -0.0132 C.ar    
   4 C4             2.3998     0.0310    -0.0208 C.ar    
   5 C5             2.3781     1.4132    -0.0132 C.ar    
   6 C6             1.1710     2.0863     0.0021 C.ar    
   7 F7             1.2323    -2.0304    -0.0202 F       
   8 C8             3.7164    -0.7020    -0.0368 C.3     
   9 S9             4.2287    -0.9875    -1.7534 S.o2    
  10 C10            5.7636    -1.8420    -1.6179 C.ar    
  11 C11            5.7752    -3.2285    -1.5649 C.ar    
  12 C12            6.9670    -3.9143    -1.4584 C.ar    
  13 C13            8.1626    -3.2117    -1.4044 C.ar    
  14 C14            8.1510    -1.8059    -1.4586 C.ar    
  15 C15            6.9302    -1.1328    -1.5717 C.ar    
  16 N16            9.4885    -3.5822    -1.3012 N.pl3   
  17 C17           10.2310    -2.4322    -1.2950 C.2     
  18 N18            9.4391    -1.3924    -1.3877 N.2     
  19 C19           11.7057    -2.3722    -1.1973 C.ar    
  20 O20            3.3623    -1.9211    -2.3836 O.2     
  21 O21            4.5657     0.2405    -2.3840 O.2     
  22 C22           12.3496    -1.1355    -1.2011 C.ar    
  23 C23           13.7303    -1.0957    -1.1085 C.ar    
  24 C24           14.4232    -2.2940    -1.0150 C.ar    
  25 C25           13.7215    -3.4864    -1.0168 C.ar    
  26 N26           12.4065    -3.4975    -1.1009 N.ar    
  27 Cl27          -1.4890    -0.8931     0.0121 Cl      
  28 O28           11.7244    -4.7384    -1.0997 O.3     
  29 H29           -0.9593     1.9057     0.0170 H       
  30 H30            3.3050     1.9674    -0.0191 H       
  31 H31            1.1555     3.1662     0.0080 H       
  32 H32            4.4716    -0.1037     0.4729 H       
  33 H33            3.6058    -1.6589     0.4732 H       
  34 H34            4.8444    -3.7744    -1.6070 H       
  35 H35            6.9698    -4.9935    -1.4168 H       
  36 H36            6.9094    -0.0538    -1.6145 H       
  37 H37            9.8302    -4.4882    -1.2433 H       
  38 H38           11.7792    -0.2214    -1.2757 H       
  39 H39           14.2565    -0.1526    -1.1094 H       
  40 H40           15.5007    -2.2961    -0.9418 H       
  41 H41           14.2586    -4.4206    -0.9444 H       
@<TRIPOS>BOND
   1    1    2 ar
   2    1    6 ar
   3    1   29 1
   4    2    3 ar
   5    2   27 1
   6    3    4 ar
   7    3    7 1
   8    4    5 ar
   9    4    8 1
  10    5    6 ar
  11    5   30 1
  12    6   31 1
  13    8    9 1
  14    8   32 1
  15    8   33 1
  16    9   10 1
  17    9   20 2
  18    9   21 2
  19   10   11 ar
  20   10   15 ar
  21   11   12 ar
  22   11   34 1
  23   12   13 ar
  24   12   35 1
  25   13   14 ar
  26   13   16 1
  27   14   15 ar
  28   14   18 1
  29   15   36 1
  30   16   17 1
  31   16   37 1
  32   17   18 2
  33   17   19 1
  34   19   22 ar
  35   19   26 ar
  36   22   23 ar
  37   22   38 1
  38   23   24 ar
  39   23   39 1
  40   24   25 ar
  41   24   40 1
  42   25   26 ar
  43   25   41 1
  44   26   28 1

#	End of record

