#	Name: ASD01000022
#	Creating user name:	WinNT
#	Creation time:	15. 06. 2019 18:54

#	Modifying user name:	WinNT
#	Modification time:	15. 06. 2019 18:54

#	Program:	/corina/corina34_cracker 3.40 0067  02.08.2006

@<TRIPOS>MOLECULE
ASD01000022
  48   49    0    0    0
SMALL
NO_CHARGES


@<TRIPOS>ATOM
   1 C1            -2.2653     1.7742    -0.3974 C.ar    
   2 C2            -1.6341     0.5392    -0.4198 C.ar    
   3 C3            -2.3751    -0.6168    -0.2665 C.ar    
   4 C4            -3.7443    -0.5434    -0.0908 C.ar    
   5 C5            -4.3760     0.6866    -0.0685 C.ar    
   6 C6            -3.6389     1.8455    -0.2152 C.ar    
   7 C7            -1.6901    -1.9589    -0.2913 C.3     
   8 N8            -2.3123    -2.8053     0.7407 N.am    
   9 C9            -1.7255    -2.4753    -1.7154 C.2     
  10 C10           -2.3211    -3.6674    -1.9372 C.2     
  11 N11           -2.8717    -4.3812    -0.9127 N.am    
  12 C12           -2.8688    -3.9731     0.3626 C.2     
  13 C13           -1.1550    -1.7344    -2.7763 C.2     
  14 O14           -0.4534    -0.6117    -2.5143 O.3     
  15 S15           -3.5953    -4.9676     1.5518 S.2     
  16 O16           -1.2967    -2.1091    -3.9253 O.2     
  17 O17           -1.5387     2.9128    -0.5481 O.3     
  18 C18            0.0948     0.0867    -3.6340 C.3     
  19 C19            0.8502     1.3235    -3.1435 C.3     
  20 C20           -3.7014    -4.2583    -5.4583 C.3     
  21 C21           -3.5865    -3.6269    -4.0694 C.3     
  22 C22           -2.3789    -4.2178    -3.3389 C.3     
  23 C23           -2.4643    -6.7849    -1.1066 C.3     
  24 C24           -3.5014    -5.6664    -1.2257 C.3     
  25 H25           -0.5645     0.4814    -0.5574 H       
  26 H26           -4.3218    -1.4482     0.0289 H       
  27 H27           -5.4459     0.7413     0.0682 H       
  28 H28           -4.1326     2.8059    -0.1973 H       
  29 H29           -0.6467    -1.8055    -0.0158 H       
  30 H30           -2.3212    -2.5291     1.6705 H       
  31 H31           -1.4430     3.1996    -1.4666 H       
  32 H32            0.7807    -0.5687    -4.1708 H       
  33 H33           -0.7109     0.3938    -4.3007 H       
  34 H34            1.2684     1.8563    -3.9975 H       
  35 H35            0.1644     1.9790    -2.6067 H       
  36 H36            1.6560     1.0165    -2.4768 H       
  37 H37           -4.5616    -3.8373    -5.9788 H       
  38 H38           -2.7952    -4.0512    -6.0277 H       
  39 H39           -3.8291    -5.3361    -5.3580 H       
  40 H40           -3.4587    -2.5491    -4.1697 H       
  41 H41           -4.4926    -3.8340    -3.5001 H       
  42 H42           -1.4660    -3.9516    -3.8717 H       
  43 H43           -2.4734    -5.3030    -3.2996 H       
  44 H44           -2.9066    -7.7266    -1.4316 H       
  45 H45           -1.6044    -6.5515    -1.7345 H       
  46 H46           -2.1430    -6.8734    -0.0688 H       
  47 H47           -4.3170    -5.8512    -0.5267 H       
  48 H48           -3.8931    -5.6409    -2.2426 H       
@<TRIPOS>BOND
   1    1    2 ar
   2    1   17 1
   3    1    6 ar
   4    2    3 ar
   5    2   25 1
   6    3    4 ar
   7    3    7 1
   8    4    5 ar
   9    4   26 1
  10    5    6 ar
  11    5   27 1
  12    6   28 1
  13    7    8 1
  14    7    9 1
  15    7   29 1
  16    8   12 am
  17    8   30 1
  18    9   10 2
  19    9   13 1
  20   10   22 1
  21   10   11 1
  22   11   24 1
  23   11   12 am
  24   12   15 2
  25   13   14 1
  26   13   16 2
  27   14   18 1
  28   17   31 1
  29   18   19 1
  30   18   32 1
  31   18   33 1
  32   19   34 1
  33   19   35 1
  34   19   36 1
  35   20   21 1
  36   20   37 1
  37   20   38 1
  38   20   39 1
  39   21   22 1
  40   21   40 1
  41   21   41 1
  42   22   42 1
  43   22   43 1
  44   23   24 1
  45   23   44 1
  46   23   45 1
  47   23   46 1
  48   24   47 1
  49   24   48 1

#	End of record

