#	Name: ASD01903330
#	Creating user name:	WinNT
#	Creation time:	15. 06. 2019 19:54

#	Modifying user name:	WinNT
#	Modification time:	15. 06. 2019 19:54

#	Program:	/corina/corina34_cracker 3.40 0067  02.08.2006

@<TRIPOS>MOLECULE
ASD01903330
  35   38    0    0    0
SMALL
NO_CHARGES


@<TRIPOS>ATOM
   1 N1            -0.0111     0.9658     0.0074 N.pl3   
   2 H2             0.0021    -0.0041     0.0020 H       
   3 C3             1.1812     1.6760    -0.0002 C.2     
   4 C4            -1.2207     1.6425     0.0168 C.ar    
   5 S5             2.7381     0.9684    -0.0189 S.3     
   6 C6             3.4776     2.5602     0.0089 C.2     
   7 C7             2.4882     3.4851    -0.0223 C.2     
   8 N8             1.2717     2.9701     0.0003 N.2     
   9 C9             4.9285     2.9129     0.1083 C.3     
  10 C10            5.5503     3.3439    -1.2303 C.3     
  11 C11            4.5529     4.2695    -1.9520 C.3     
  12 C12            3.8988     5.2558    -1.0347 C.2     
  13 C13            2.8958     4.9188    -0.1724 C.2     
  14 N14            4.1227     6.5714    -0.8820 N.pl3   
  15 N15            3.1831     7.0691     0.0356 N.2     
  16 C16            2.4395     6.0711     0.4562 C.2     
  17 N17           -2.3494     0.9490     0.0184 N.ar    
  18 C18           -3.5207     1.5638     0.0277 C.ar    
  19 C19           -3.5570     2.9492     0.0359 C.ar    
  20 C20           -2.3571     3.6436     0.0339 C.ar    
  21 N21           -1.2205     2.9674     0.0295 N.ar    
  22 C22           -4.8000     0.7673     0.0289 C.3     
  23 H23            5.0411     3.7277     0.8235 H       
  24 H24            5.4732     2.0462     0.4829 H       
  25 H25            6.4819     3.8793    -1.0471 H       
  26 H26            5.7460     2.4648    -1.8444 H       
  27 H27            5.0827     4.8149    -2.7330 H       
  28 H28            3.7802     3.6576    -2.4174 H       
  29 H29            4.8129     7.0874    -1.3272 H       
  30 H30            1.6232     6.1345     1.1606 H       
  31 H31           -4.4996     3.4764     0.0432 H       
  32 H32           -2.3506     4.7236     0.0398 H       
  33 H33           -5.1036     0.5690     1.0569 H       
  34 H34           -5.5813     1.3339    -0.4777 H       
  35 H35           -4.6406    -0.1771    -0.4914 H       
@<TRIPOS>BOND
   1    1    2 1
   2    1    3 1
   3    1    4 1
   4    3    5 1
   5    3    8 2
   6    4   17 ar
   7    4   21 ar
   8    5    6 1
   9    6    7 2
  10    6    9 1
  11    7    8 1
  12    7   13 1
  13    9   10 1
  14    9   23 1
  15    9   24 1
  16   10   11 1
  17   10   25 1
  18   10   26 1
  19   11   12 1
  20   11   27 1
  21   11   28 1
  22   12   13 2
  23   12   14 1
  24   13   16 1
  25   14   15 1
  26   14   29 1
  27   15   16 2
  28   16   30 1
  29   17   18 ar
  30   18   19 ar
  31   18   22 1
  32   19   20 ar
  33   19   31 1
  34   20   21 ar
  35   20   32 1
  36   22   33 1
  37   22   34 1
  38   22   35 1

#	End of record

