#	Name: ASD03731296
#	Creating user name:	WinNT
#	Creation time:	15. 06. 2019 20:45

#	Modifying user name:	WinNT
#	Modification time:	15. 06. 2019 20:45

#	Program:	/corina/corina34_cracker 3.40 0067  02.08.2006

@<TRIPOS>MOLECULE
ASD03731296
  55   60    0    0    0
SMALL
NO_CHARGES


@<TRIPOS>ATOM
   1 N1            -0.0162     1.3436     0.0094 N.am    
   2 C2            -0.1242     0.0002     0.0197 C.2     
   3 O3             0.8717    -0.6905    -0.0769 O.2     
   4 N4            -1.3362    -0.5776     0.1371 N.am    
   5 C5            -1.4535    -2.0378     0.1483 C.3     
   6 C6            -2.9255    -2.4301     0.2909 C.3     
   7 O7             1.5822    -7.7630     2.0030 O.3     
   8 C8             1.8960    -9.1520     2.2157 C.3     
   9 O9             0.7149    -9.6763     2.8507 O.3     
  10 C10           -0.3125    -8.8851     2.4226 C.ar    
  11 C11            0.2215    -7.7083     1.9023 C.ar    
  12 C12           -1.6823    -9.0773     2.4339 C.ar    
  13 C13           -2.5356    -8.1004     1.9297 C.ar    
  14 C14           -1.9909    -6.9256     1.4202 C.ar    
  15 C15           -0.6251    -6.7335     1.4019 C.ar    
  16 O16           -3.8960    -8.0972     1.8317 O.3     
  17 C17           -3.1496    -6.0690     0.9848 C.3     
  18 C18           -4.3562    -6.7441     1.6512 C.3     
  19 N19           -3.0429    -3.8903     0.3021 N.am    
  20 C20           -2.9958    -4.6405     1.4211 C.2     
  21 C21           -3.2916    -6.0162    -0.5074 C.ar    
  22 C22           -3.4631    -6.9745    -1.4813 C.ar    
  23 C23           -3.5648    -6.6019    -2.8098 C.ar    
  24 C24           -3.4932    -5.2650    -3.1572 C.ar    
  25 C25           -3.3205    -4.3016    -2.1854 C.ar    
  26 C26           -3.2175    -4.6675    -0.8456 C.ar    
  27 O27           -2.8568    -4.2400     2.5574 O.2     
  28 C28            1.2443     1.9422     0.0011 C.ar    
  29 C29            1.4441     3.1292    -0.6960 C.ar    
  30 C30            2.6864     3.7228    -0.7064 C.ar    
  31 C31            3.7475     3.1312    -0.0150 C.ar    
  32 C32            3.5429     1.9386     0.6847 C.ar    
  33 C33            2.2966     1.3534     0.6947 C.ar    
  34 C34            5.0411     3.7453    -0.0239 C.1     
  35 N35            6.0674     4.2324    -0.0310 N.1     
  36 H36           -0.8147     1.8943     0.0038 H       
  37 H37           -2.1307    -0.0266     0.2142 H       
  38 H38           -1.0587    -2.4412    -0.7842 H       
  39 H39           -0.8870    -2.4415     0.9875 H       
  40 H40           -3.3203    -2.0267     1.2234 H       
  41 H41           -3.4920    -2.0265    -0.5483 H       
  42 H42            2.0746    -9.6543     1.2650 H       
  43 H43            2.7605    -9.2532     2.8719 H       
  44 H44           -2.0924    -9.9916     2.8368 H       
  45 H45           -0.2150    -5.8203     0.9964 H       
  46 H46           -5.2267    -6.7154     0.9958 H       
  47 H47           -4.5781    -6.2793     2.6118 H       
  48 H48           -3.5186    -8.0178    -1.2078 H       
  49 H49           -3.7003    -7.3531    -3.5739 H       
  50 H50           -3.5725    -4.9742    -4.1942 H       
  51 H51           -3.2649    -3.2597    -2.4645 H       
  52 H52            0.6238     3.5857    -1.2300 H       
  53 H53            2.8410     4.6440    -1.2484 H       
  54 H54            4.3604     1.4788     1.2200 H       
  55 H55            2.1368     0.4339     1.2382 H       
@<TRIPOS>BOND
   1    1    2 am
   2    1   28 1
   3    1   36 1
   4    2    3 2
   5    2    4 am
   6    4    5 1
   7    4   37 1
   8    5    6 1
   9    5   38 1
  10    5   39 1
  11    6   19 1
  12    6   40 1
  13    6   41 1
  14    7    8 1
  15    7   11 1
  16    8    9 1
  17    8   42 1
  18    8   43 1
  19    9   10 1
  20   10   11 ar
  21   10   12 ar
  22   11   15 ar
  23   12   13 ar
  24   12   44 1
  25   13   14 ar
  26   13   16 1
  27   14   15 ar
  28   14   17 1
  29   15   45 1
  30   16   18 1
  31   17   18 1
  32   17   20 1
  33   17   21 1
  34   18   46 1
  35   18   47 1
  36   19   20 am
  37   19   26 1
  38   20   27 2
  39   21   22 ar
  40   21   26 ar
  41   22   23 ar
  42   22   48 1
  43   23   24 ar
  44   23   49 1
  45   24   25 ar
  46   24   50 1
  47   25   26 ar
  48   25   51 1
  49   28   29 ar
  50   28   33 ar
  51   29   30 ar
  52   29   52 1
  53   30   31 ar
  54   30   53 1
  55   31   32 ar
  56   31   34 1
  57   32   33 ar
  58   32   54 1
  59   33   55 1
  60   34   35 3

#	End of record

