#	Name: ASD01140479
#	Creating user name:	WinNT
#	Creation time:	15. 06. 2019 19:00

#	Modifying user name:	WinNT
#	Modification time:	15. 06. 2019 19:00

#	Program:	/corina/corina34_cracker 3.40 0067  02.08.2006

@<TRIPOS>MOLECULE
ASD01140479
  40   42    0    0    0
SMALL
NO_CHARGES


@<TRIPOS>ATOM
   1 C1            -0.0288     1.0063    -0.2703 C.ar    
   2 C2             0.1649    -0.3514    -0.0953 C.ar    
   3 C3             1.4416    -0.8500     0.0830 C.ar    
   4 C4             2.5250     0.0090     0.0859 C.ar    
   5 C5             2.3314     1.3661    -0.0899 C.ar    
   6 C6             1.0542     1.8650    -0.2668 C.ar    
   7 C7             1.6527    -2.3297     0.2747 C.3     
   8 C8             3.5122     2.3024    -0.0857 C.3     
   9 S9             4.1461     2.4817    -1.7716 S.3     
  10 C10            5.4805     3.5947    -1.4801 C.2     
  11 N11            6.2993     4.0585    -2.4819 N.am    
  12 N12            5.7716     4.0509    -0.3061 N.2     
  13 C13            6.9290     4.9524    -0.3857 C.3     
  14 C14            7.2965     4.9611    -1.8827 C.3     
  15 C15            6.2058     3.7411    -3.7884 C.2     
  16 C16            7.0801     4.4077    -4.7748 C.ar    
  17 O17            5.4020     2.9064    -4.1550 O.2     
  18 C18            8.9192     5.8708    -5.2716 C.ar    
  19 C19            8.1061     5.2517    -4.3453 C.ar    
  20 C20            6.8881     4.1921    -6.1423 C.ar    
  21 C21            7.7101     4.8187    -7.0583 C.ar    
  22 C22            8.7210     5.6571    -6.6245 C.ar    
  23 Cl23           5.6203     3.1391    -6.6878 Cl      
  24 H24           -1.0260     1.3954    -0.4141 H       
  25 H25           -0.6814    -1.0223    -0.0976 H       
  26 H26            3.5225    -0.3806     0.2259 H       
  27 H27            0.9029     2.9256    -0.4035 H       
  28 H28            1.7994    -2.8045    -0.6955 H       
  29 H29            2.5329    -2.4937     0.8963 H       
  30 H30            0.7783    -2.7614     0.7619 H       
  31 H31            3.2019     3.2769     0.2912 H       
  32 H32            4.2950     1.8972     0.5555 H       
  33 H33            6.6555     5.9548    -0.0564 H       
  34 H34            7.7556     4.5659     0.2104 H       
  35 H35            8.3047     4.5759    -2.0356 H       
  36 H36            7.2015     5.9661    -2.2938 H       
  37 H37            9.7128     6.5241    -4.9403 H       
  38 H38            8.2624     5.4199    -3.2900 H       
  39 H39            7.5634     4.6534    -8.1154 H       
  40 H40            9.3611     6.1446    -7.3449 H       
@<TRIPOS>BOND
   1    1    2 ar
   2    1    6 ar
   3    1   24 1
   4    2    3 ar
   5    2   25 1
   6    3    4 ar
   7    3    7 1
   8    4    5 ar
   9    4   26 1
  10    5    6 ar
  11    5    8 1
  12    6   27 1
  13    7   28 1
  14    7   29 1
  15    7   30 1
  16    8    9 1
  17    8   31 1
  18    8   32 1
  19    9   10 1
  20   10   12 2
  21   10   11 1
  22   11   14 1
  23   11   15 am
  24   12   13 1
  25   13   14 1
  26   13   33 1
  27   13   34 1
  28   14   35 1
  29   14   36 1
  30   15   16 1
  31   15   17 2
  32   16   20 ar
  33   16   19 ar
  34   18   19 ar
  35   18   22 ar
  36   18   37 1
  37   19   38 1
  38   20   21 ar
  39   20   23 1
  40   21   22 ar
  41   21   39 1
  42   22   40 1

#	End of record

