#	Name: ASD08170141
#	Creating user name:	WinNT
#	Creation time:	15. 06. 2019 21:17

#	Modifying user name:	WinNT
#	Modification time:	15. 06. 2019 21:17

#	Program:	/corina/corina34_cracker 3.40 0067  02.08.2006

@<TRIPOS>MOLECULE
ASD08170141
  93   96    0    0    0
SMALL
NO_CHARGES


@<TRIPOS>ATOM
   1 C1             2.1074     2.0643     0.5933 C.3     
   2 C2             5.5174     4.4220    -0.1694 C.3     
   3 C3             5.8087     5.8788    -0.5349 C.3     
   4 C4             7.2969     6.0753    -0.6686 C.2     
   5 C5             1.9888     0.6047     0.9493 C.2     
   6 S6             8.4049     6.5417     0.6223 S.3     
   7 C7             9.7017     6.4816    -0.4955 C.2     
   8 N8             9.2334     6.1422    -1.6586 N.2     
   9 N9             7.9929     5.9265    -1.7507 N.2     
  10 S10            1.8263    -0.7337    -0.1881 S.3     
  11 N11            1.9935     0.1073     2.1451 N.2     
  12 N12            1.8829    -1.1471     2.2355 N.2     
  13 C13            1.7770    -1.8242     1.1322 C.2     
  14 N14            1.6471    -3.2057     1.0381 N.am    
  15 C15            1.6236    -3.9580     2.1561 C.2     
  16 O16            1.7158    -3.4303     3.2442 O.2     
  17 N17           11.0348     6.7520    -0.2059 N.am    
  18 C18           11.9655     6.6699    -1.1772 C.2     
  19 C19           13.4101     6.9628    -0.8633 C.3     
  20 O20           11.6405     6.3602    -2.3039 O.2     
  21 C21            1.4829    -5.4550     2.0542 C.3     
  22 C22            1.4840    -6.0549     3.4366 C.ar    
  23 C23            3.5833     2.4286     0.4201 C.3     
  24 S24            3.7261     4.1855    -0.0085 S.3     
  25 C25            0.2920    -6.2207     4.1177 C.ar    
  26 C26           14.2383     6.8010    -2.1119 C.ar    
  27 C27           14.4411     7.8819    -2.9501 C.ar    
  28 C28           15.2000     7.7370    -4.0949 C.ar    
  29 C29           15.7596     6.5042    -4.4038 C.ar    
  30 C30           15.5540     5.4207    -3.5600 C.ar    
  31 C31           14.7985     5.5734    -2.4139 C.ar    
  32 C32            2.6764    -6.4436     4.0191 C.ar    
  33 C33            2.6807    -6.9942     5.2857 C.ar    
  34 C34            1.4860    -7.1568     5.9746 C.ar    
  35 C35            0.2897    -6.7702     5.3848 C.ar    
  36 N36            1.4870    -7.7143     7.2583 N.am    
  37 C37            2.4983    -7.4472     8.1082 C.2     
  38 N38           16.5287     6.3539    -5.5633 N.am    
  39 C39           17.2830     7.3780    -6.0091 C.2     
  40 O40            3.4500    -6.7914     7.7331 O.2     
  41 O41            2.4540    -7.9069     9.3730 O.3     
  42 C42            3.5778    -7.5809    10.2327 C.3     
  43 C43            3.7044    -6.0608    10.3520 C.3     
  44 C44            3.3504    -8.1842    11.6202 C.3     
  45 C45            4.8628    -8.1540     9.6317 C.3     
  46 O46           17.3695     8.3985    -5.3551 O.2     
  47 O47           17.9408     7.2704    -7.1790 O.3     
  48 C48           18.7340     8.4125    -7.5968 C.3     
  49 C49           19.8085     8.6991    -6.5460 C.3     
  50 C50           19.4020     8.1061    -8.9388 C.3     
  51 C51           17.8274     9.6359    -7.7460 C.3     
  52 H52            1.5743     2.2556    -0.3380 H       
  53 H53            1.6750     2.6690     1.3904 H       
  54 H54            5.9015     3.7673    -0.9518 H       
  55 H55            6.0022     4.1807     0.7766 H       
  56 H56            5.3240     6.1200    -1.4809 H       
  57 H57            5.4247     6.5334     0.2475 H       
  58 H58            1.5734    -3.6278     0.1679 H       
  59 H59           11.2947     6.9997     0.6952 H       
  60 H60           13.5020     7.9850    -0.4962 H       
  61 H61           13.7639     6.2696    -0.1002 H       
  62 H62            0.5460    -5.6985     1.5532 H       
  63 H63            2.3172    -5.8602     1.4816 H       
  64 H64            4.1165     2.2373     1.3513 H       
  65 H65            4.0157     1.8239    -0.3770 H       
  66 H66           -0.6380    -5.9199     3.6585 H       
  67 H67           14.0054     8.8404    -2.7095 H       
  68 H68           15.3578     8.5815    -4.7494 H       
  69 H69           15.9878     4.4606    -3.7975 H       
  70 H70           14.6382     4.7311    -1.7572 H       
  71 H71            3.6052    -6.3168     3.4828 H       
  72 H72            3.6123    -7.2982     5.7398 H       
  73 H73           -0.6411    -6.8954     5.9181 H       
  74 H74            0.7599    -8.2930     7.5363 H       
  75 H75           16.5189     5.5127    -6.0462 H       
  76 H76            2.7889    -5.6525    10.7802 H       
  77 H77            4.5480    -5.8160    10.9974 H       
  78 H78            3.8664    -5.6310     9.3636 H       
  79 H79            3.2603    -9.2671    11.5352 H       
  80 H80            4.1941    -7.9394    12.2655 H       
  81 H81            2.4350    -7.7759    12.0484 H       
  82 H82            5.0248    -7.7242     8.6432 H       
  83 H83            5.7064    -7.9092    10.2770 H       
  84 H84            4.7726    -9.2369     9.5466 H       
  85 H85           20.4543     7.8275    -6.4397 H       
  86 H86           20.4039     9.5565    -6.8596 H       
  87 H87           19.3326     8.9174    -5.5899 H       
  88 H88           18.6365     7.9019    -9.6874 H       
  89 H89           19.9974     8.9635    -9.2524 H       
  90 H90           20.0479     7.2345    -8.8325 H       
  91 H91           17.3515     9.8542    -6.7900 H       
  92 H92           18.4229    10.4933    -8.0596 H       
  93 H93           17.0619     9.4318    -8.4947 H       
@<TRIPOS>BOND
   1    1    5 1
   2    1   23 1
   3    1   52 1
   4    1   53 1
   5    2    3 1
   6    2   24 1
   7    2   54 1
   8    2   55 1
   9    3    4 1
  10    3   56 1
  11    3   57 1
  12    4    6 1
  13    4    9 2
  14    5   10 1
  15    5   11 2
  16    6    7 1
  17    7    8 2
  18    7   17 1
  19    8    9 1
  20   10   13 1
  21   11   12 1
  22   12   13 2
  23   13   14 1
  24   14   15 am
  25   14   58 1
  26   15   16 2
  27   15   21 1
  28   17   18 am
  29   17   59 1
  30   18   19 1
  31   18   20 2
  32   19   26 1
  33   19   60 1
  34   19   61 1
  35   21   22 1
  36   21   62 1
  37   21   63 1
  38   22   25 ar
  39   22   32 ar
  40   23   24 1
  41   23   64 1
  42   23   65 1
  43   25   35 ar
  44   25   66 1
  45   26   27 ar
  46   26   31 ar
  47   27   28 ar
  48   27   67 1
  49   28   29 ar
  50   28   68 1
  51   29   30 ar
  52   29   38 1
  53   30   31 ar
  54   30   69 1
  55   31   70 1
  56   32   33 ar
  57   32   71 1
  58   33   34 ar
  59   33   72 1
  60   34   35 ar
  61   34   36 1
  62   35   73 1
  63   36   37 am
  64   36   74 1
  65   37   40 2
  66   37   41 1
  67   38   39 am
  68   38   75 1
  69   39   46 2
  70   39   47 1
  71   41   42 1
  72   42   43 1
  73   42   44 1
  74   42   45 1
  75   43   76 1
  76   43   77 1
  77   43   78 1
  78   44   79 1
  79   44   80 1
  80   44   81 1
  81   45   82 1
  82   45   83 1
  83   45   84 1
  84   47   48 1
  85   48   49 1
  86   48   50 1
  87   48   51 1
  88   49   85 1
  89   49   86 1
  90   49   87 1
  91   50   88 1
  92   50   89 1
  93   50   90 1
  94   51   91 1
  95   51   92 1
  96   51   93 1

#	End of record

