#	Name: ASD01140145
#	Creating user name:	WinNT
#	Creation time:	15. 06. 2019 19:00

#	Modifying user name:	WinNT
#	Modification time:	15. 06. 2019 19:00

#	Program:	/corina/corina34_cracker 3.40 0067  02.08.2006

@<TRIPOS>MOLECULE
ASD01140145
  51   54    0    0    0
SMALL
NO_CHARGES


@<TRIPOS>ATOM
   1 C1            -1.4137     1.0898    -1.4639 C.ar    
   2 C2            -1.0074    -0.1911    -1.0950 C.ar    
   3 C3             0.3169    -0.5799    -1.2868 C.ar    
   4 C4             1.2199     0.3038    -1.8407 C.ar    
   5 C5             0.8117     1.5765    -2.2062 C.ar    
   6 C6            -0.5042     1.9673    -2.0172 C.ar    
   7 C7            -1.9822    -1.1381    -0.4990 C.2     
   8 C8            -2.0262    -2.5485    -0.6828 C.2     
   9 C9            -3.0838    -2.9413     0.0626 C.2     
  10 O10           -3.5932    -1.8341     0.6214 O.3     
  11 N11           -2.9725    -0.8453     0.3071 N.2     
  12 C12           -3.5916    -4.3500     0.2320 C.3     
  13 C13           -1.1077    -3.4054    -1.5154 C.3     
  14 O14           -0.0064    -3.8401    -0.7152 O.3     
  15 C15            0.9192    -4.6256    -1.3172 C.ar    
  16 C16            2.9497    -5.8830    -1.2039 C.ar    
  17 C17            2.0103    -5.0834    -0.5855 C.ar    
  18 N18            0.7694    -4.9508    -2.5923 N.ar    
  19 C19            1.6409    -5.7108    -3.2213 C.ar    
  20 C20            2.7641    -6.2046    -2.5563 C.ar    
  21 C21            3.7400    -7.0560    -3.2647 C.2     
  22 N22            4.2749    -6.6416    -4.4302 N.am    
  23 O23            4.0613    -8.1312    -2.7966 O.2     
  24 S24            4.3120    -6.5349    -7.4575 S.o2    
  25 C25            3.1391    -5.6676    -6.3664 C.3     
  26 C26            3.8260    -5.3826    -5.0272 C.3     
  27 C27            5.3038    -7.4515    -5.0847 C.3     
  28 C28            4.7762    -7.9594    -6.4300 C.3     
  29 O29            3.6087    -7.0034    -8.5999 O.2     
  30 O30            5.4597    -5.7158    -7.6336 O.2     
  31 F31            1.6992     2.4388    -2.7483 F       
  32 H32           -2.4402     1.3936    -1.3211 H       
  33 H33            0.6360    -1.5716    -1.0018 H       
  34 H34            2.2466     0.0033    -1.9894 H       
  35 H35           -0.8183     2.9601    -2.3034 H       
  36 H36           -3.0957    -4.8150     1.0840 H       
  37 H37           -4.6677    -4.3300     0.4044 H       
  38 H38           -3.3787    -4.9238    -0.6699 H       
  39 H39           -1.6547    -4.2736    -1.8830 H       
  40 H40           -0.7363    -2.8254    -2.3603 H       
  41 H41            3.8063    -6.2525    -0.6598 H       
  42 H42            2.1210    -4.8157     0.4549 H       
  43 H43            1.4850    -5.9548    -4.2618 H       
  44 H44            2.8333    -4.7303    -6.8311 H       
  45 H45            2.2644    -6.2958    -6.1982 H       
  46 H46            3.1218    -4.8925    -4.3549 H       
  47 H47            4.6849    -4.7316    -5.1908 H       
  48 H48            6.1938    -6.8441    -5.2495 H       
  49 H49            5.5562    -8.3006    -4.4495 H       
  50 H50            3.9019    -8.5883    -6.2619 H       
  51 H51            5.5510    -8.5364    -6.9349 H       
@<TRIPOS>BOND
   1    1    2 ar
   2    1    6 ar
   3    1   32 1
   4    2    3 ar
   5    2    7 1
   6    3    4 ar
   7    3   33 1
   8    4    5 ar
   9    4   34 1
  10    5    6 ar
  11    5   31 1
  12    6   35 1
  13    7    8 1
  14    7   11 2
  15    8    9 2
  16    8   13 1
  17    9   10 1
  18    9   12 1
  19   10   11 1
  20   12   36 1
  21   12   37 1
  22   12   38 1
  23   13   14 1
  24   13   39 1
  25   13   40 1
  26   14   15 1
  27   15   18 ar
  28   15   17 ar
  29   16   17 ar
  30   16   20 ar
  31   16   41 1
  32   17   42 1
  33   18   19 ar
  34   19   20 ar
  35   19   43 1
  36   20   21 1
  37   21   22 am
  38   21   23 2
  39   22   27 1
  40   22   26 1
  41   24   25 1
  42   24   28 1
  43   24   29 2
  44   24   30 2
  45   25   26 1
  46   25   44 1
  47   25   45 1
  48   26   46 1
  49   26   47 1
  50   27   28 1
  51   27   48 1
  52   27   49 1
  53   28   50 1
  54   28   51 1

#	End of record

