#	Name: ASD01916544
#	Creating user name:	WinNT
#	Creation time:	15. 06. 2019 20:07

#	Modifying user name:	WinNT
#	Modification time:	15. 06. 2019 20:07

#	Program:	/corina/corina34_cracker 3.40 0067  02.08.2006

@<TRIPOS>MOLECULE
ASD01916544
  43   47    0    0    0
SMALL
NO_CHARGES


@<TRIPOS>ATOM
   1 C1            -0.0171     1.4101     0.0098 C.ar    
   2 C2             0.0021    -0.0041     0.0020 C.ar    
   3 C3            -1.1908    -0.7257     0.0496 C.ar    
   4 C4            -2.3833    -0.0644     0.0863 C.ar    
   5 C5            -2.4213     1.3381     0.0723 C.ar    
   6 C6            -1.2407     2.0764     0.0369 C.ar    
   7 N7             1.1595     2.0756     0.0021 N.2     
   8 C8             2.3205     1.4685    -0.0463 C.2     
   9 N9             2.4176     0.1228    -0.1847 N.am    
  10 C10            1.3102    -0.6616    -0.0748 C.2     
  11 C11           -3.6828     2.0153     0.0947 C.1     
  12 O12            1.4036    -1.8750    -0.0417 O.2     
  13 C13           -4.7171     2.5705     0.1130 C.1     
  14 C14           -5.9786     3.2478     0.1353 C.ar    
  15 C15            3.5314     2.3479     0.1196 C.3     
  16 C16            4.7886     1.7371    -0.4591 C.3     
  17 C17            4.8936     0.2557    -0.1485 C.3     
  18 C18            3.6680    -0.5579    -0.5082 C.3     
  19 N19           -6.0146     4.5767     0.1221 N.ar    
  20 C20           -7.1545     5.2360     0.1414 C.ar    
  21 C21           -8.3635     4.5649     0.1763 C.ar    
  22 C22           -8.3731     3.1766     0.1911 C.ar    
  23 C23           -7.1631     2.5071     0.1650 C.ar    
  24 C24            6.2107    -0.3749    -0.6400 C.3     
  25 O25            6.2419    -1.0330     0.6423 O.3     
  26 C26            5.4197    -0.0299     1.2716 C.3     
  27 H27           -1.1702    -1.8055     0.0571 H       
  28 H28           -3.3057    -0.6249     0.1260 H       
  29 H29           -1.2733     3.1558     0.0302 H       
  30 H30            3.3438     3.3005    -0.3759 H       
  31 H31            3.6880     2.5325     1.1823 H       
  32 H32            4.7837     1.8733    -1.5406 H       
  33 H33            5.6559     2.2493    -0.0426 H       
  34 H34            3.7031    -1.5035     0.0329 H       
  35 H35            3.6872    -0.7672    -1.5778 H       
  36 H36           -7.1451     6.3159     0.1301 H       
  37 H37           -9.2921     5.1162     0.1921 H       
  38 H38           -9.3050     2.6315     0.2183 H       
  39 H39           -7.1340     1.4275     0.1756 H       
  40 H40            6.0865    -1.0556    -1.4822 H       
  41 H41            7.0165     0.3445    -0.7862 H       
  42 H42            5.9849     0.7943     1.7066 H       
  43 H43            4.6672    -0.4367     1.9472 H       
@<TRIPOS>BOND
   1    1    2 ar
   2    1    7 1
   3    1    6 ar
   4    2    3 ar
   5    2   10 1
   6    3    4 ar
   7    3   27 1
   8    4    5 ar
   9    4   28 1
  10    5    6 ar
  11    5   11 1
  12    6   29 1
  13    7    8 2
  14    8    9 1
  15    8   15 1
  16    9   10 am
  17    9   18 1
  18   10   12 2
  19   11   13 3
  20   13   14 1
  21   14   19 ar
  22   14   23 ar
  23   15   16 1
  24   15   30 1
  25   15   31 1
  26   16   17 1
  27   16   32 1
  28   16   33 1
  29   17   18 1
  30   17   24 1
  31   17   26 1
  32   18   34 1
  33   18   35 1
  34   19   20 ar
  35   20   21 ar
  36   20   36 1
  37   21   22 ar
  38   21   37 1
  39   22   23 ar
  40   22   38 1
  41   23   39 1
  42   24   25 1
  43   24   40 1
  44   24   41 1
  45   25   26 1
  46   26   42 1
  47   26   43 1

#	End of record

