#	Name: ASD01150446
#	Creating user name:	WinNT
#	Creation time:	15. 06. 2019 19:04

#	Modifying user name:	WinNT
#	Modification time:	15. 06. 2019 19:04

#	Program:	/corina/corina34_cracker 3.40 0067  02.08.2006

@<TRIPOS>MOLECULE
ASD01150446
  56   59    0    0    0
SMALL
NO_CHARGES


@<TRIPOS>ATOM
   1 C1            -0.0166     1.3766     0.0096 C.ar    
   2 C2             0.0021    -0.0041     0.0020 C.ar    
   3 C3            -1.1853    -0.7134     0.0100 C.ar    
   4 C4            -2.3946    -0.0431     0.0257 C.ar    
   5 C5            -2.4204     1.3379     0.0329 C.ar    
   6 C6            -1.2299     2.0532     0.0306 C.ar    
   7 N7            -1.2524     3.4521     0.0379 N.am    
   8 C8            -1.9293     4.0990     1.0030 C.2     
   9 N9            -1.9717     5.4439     1.0407 N.am    
  10 C10           -1.3286     6.1668     0.1004 C.2     
  11 C11           -0.5864     5.4653    -0.9579 C.2     
  12 N12           -0.5652     4.1585    -0.9563 N.2     
  13 O13           -1.3626     7.3830     0.1274 O.2     
  14 C14           -2.7172     6.1231     2.1032 C.3     
  15 O15           -2.5134     3.4583     1.8559 O.2     
  16 C16           -1.8056     6.3702     3.2775 C.ar    
  17 C17           -1.0798     7.5443     3.3535 C.ar    
  18 C18           -0.2438     7.7722     4.4301 C.ar    
  19 C19           -0.1333     6.8239     5.4329 C.ar    
  20 C20           -0.8606     5.6482     5.3557 C.ar    
  21 C21           -1.7000     5.4249     4.2808 C.ar    
  22 O22            0.0714     6.1647    -1.9189 O.3     
  23 C23            0.7680     5.4073    -2.9105 C.3     
  24 F24            0.6840     7.0453     6.4856 F       
  25 C25            1.2776     2.1486     0.0014 C.3     
  26 N26            1.5879     2.5987     1.3649 N.3     
  27 C27            2.9485     3.1457     1.4416 C.3     
  28 C28            3.1849     3.7354     2.8339 C.3     
  29 C29            2.9954     2.6392     3.8860 C.3     
  30 C30            1.5872     2.0529     3.7529 C.3     
  31 C31            1.3971     1.5120     2.3340 C.3     
  32 H32            0.9449    -0.5307    -0.0105 H       
  33 H33           -1.1679    -1.7932     0.0037 H       
  34 H34           -3.3199    -0.6000     0.0319 H       
  35 H35           -3.3653     1.8608     0.0443 H       
  36 H36           -3.0954     7.0750     1.7304 H       
  37 H37           -3.5531     5.4980     2.4174 H       
  38 H38           -1.1660     8.2837     2.5710 H       
  39 H39            0.3233     8.6894     4.4890 H       
  40 H40           -0.7751     4.9078     6.1373 H       
  41 H41           -2.2674     4.5080     4.2204 H       
  42 H42            1.2484     6.0861    -3.6151 H       
  43 H43            1.5248     4.7879    -2.4292 H       
  44 H44            0.0621     4.7702    -3.4433 H       
  45 H45            2.0809     1.5073    -0.3612 H       
  46 H46            1.1800     3.0143    -0.6536 H       
  47 H47            3.6706     2.3504     1.2566 H       
  48 H48            3.0687     3.9270     0.6911 H       
  49 H49            4.2002     4.1273     2.8955 H       
  50 H50            2.4720     4.5400     3.0141 H       
  51 H51            3.7337     1.8527     3.7297 H       
  52 H52            3.1203     3.0645     4.8818 H       
  53 H53            1.4609     1.2428     4.4711 H       
  54 H54            0.8491     2.8310     3.9476 H       
  55 H55            0.3904     1.1067     2.2316 H       
  56 H56            2.1265     0.7244     2.1448 H       
@<TRIPOS>BOND
   1    1    2 ar
   2    1   25 1
   3    1    6 ar
   4    2    3 ar
   5    2   32 1
   6    3    4 ar
   7    3   33 1
   8    4    5 ar
   9    4   34 1
  10    5    6 ar
  11    5   35 1
  12    6    7 1
  13    7    8 am
  14    7   12 1
  15    8    9 am
  16    8   15 2
  17    9   10 am
  18    9   14 1
  19   10   11 1
  20   10   13 2
  21   11   12 2
  22   11   22 1
  23   14   16 1
  24   14   36 1
  25   14   37 1
  26   16   17 ar
  27   16   21 ar
  28   17   18 ar
  29   17   38 1
  30   18   19 ar
  31   18   39 1
  32   19   20 ar
  33   19   24 1
  34   20   21 ar
  35   20   40 1
  36   21   41 1
  37   22   23 1
  38   23   42 1
  39   23   43 1
  40   23   44 1
  41   25   26 1
  42   25   45 1
  43   25   46 1
  44   26   27 1
  45   26   31 1
  46   27   28 1
  47   27   47 1
  48   27   48 1
  49   28   29 1
  50   28   49 1
  51   28   50 1
  52   29   30 1
  53   29   51 1
  54   29   52 1
  55   30   31 1
  56   30   53 1
  57   30   54 1
  58   31   55 1
  59   31   56 1

#	End of record

