#	Name: ASD03330763
#	Creating user name:	WinNT
#	Creation time:	15. 06. 2019 20:37

#	Modifying user name:	WinNT
#	Modification time:	15. 06. 2019 20:37

#	Program:	/corina/corina34_cracker 3.40 0067  02.08.2006

@<TRIPOS>MOLECULE
ASD03330763
  63   65    0    0    0
SMALL
NO_CHARGES


@<TRIPOS>ATOM
   1 C1             0.7781     1.4269     0.2209 C.2     
   2 N2             0.6856     0.0714     0.2689 N.pl3   
   3 C3             2.0949     1.7327     0.0560 C.2     
   4 N4             2.7824     0.5716    -0.0117 N.2     
   5 C5             1.9440    -0.4308     0.1094 C.2     
   6 C6             2.3033    -1.8652     0.0781 C.ar    
   7 C7             2.6674     3.0876    -0.0333 C.2     
   8 O8             1.9416     4.0606     0.0413 O.2     
   9 C9             4.5646     4.5955    -0.2863 C.3     
  10 N10            3.9954     3.2485    -0.1976 N.am    
  11 C11            5.8831     4.5420    -1.0605 C.3     
  12 C12            4.8180     5.1262     1.1013 C.2     
  13 O13            4.5496     4.4462     2.0690 O.2     
  14 C14           -0.5505    -0.6894     0.4711 C.3     
  15 C15           -1.6384    -0.1354    -0.4543 C.3     
  16 C16           -2.3667     1.0134     0.2359 C.3     
  17 N17           -1.4572     1.7731     1.0959 N.3     
  18 C18           -0.3754     2.3917     0.3152 C.3     
  19 C19            3.1377    -2.3577    -0.9288 C.ar    
  20 C20            1.8154    -2.7309     1.0569 C.ar    
  21 C21            2.1552    -4.0700     1.0223 C.ar    
  22 C22            2.9787    -4.5531     0.0183 C.ar    
  23 C23            3.4701    -3.6991    -0.9521 C.ar    
  24 C24           -2.1882     2.7820     1.8740 C.3     
  25 N25            5.3429     6.3564     1.2668 N.am    
  26 C26            5.5892     6.8723     2.6157 C.3     
  27 C27            5.6046     4.1638    -2.5166 C.3     
  28 C28            5.0576     2.7362    -2.5770 C.3     
  29 C29            4.5750     5.1298    -3.1065 C.3     
  30 C30            6.9025     4.2472    -3.3225 C.3     
  31 F31            1.6838    -4.9097     1.9698 F       
  32 F32            3.6181    -1.5247    -1.8777 F       
  33 H33            3.8654     5.2520    -0.8043 H       
  34 H34            4.5743     2.4725    -0.2570 H       
  35 H35            6.3654     5.5189    -1.0248 H       
  36 H36            6.5388     3.7965    -0.6105 H       
  37 H37           -0.3742    -1.7395     0.2383 H       
  38 H38           -0.8714    -0.5940     1.5085 H       
  39 H39           -1.1811     0.2265    -1.3752 H       
  40 H40           -2.3504    -0.9261    -0.6906 H       
  41 H41           -2.7830     1.6788    -0.5205 H       
  42 H42           -3.1781     0.6099     0.8416 H       
  43 H43           -0.0464     3.3060     0.8091 H       
  44 H44           -0.7368     2.6266    -0.6859 H       
  45 H45            1.1737    -2.3555     1.8402 H       
  46 H46            3.2413    -5.6005    -0.0043 H       
  47 H47            4.1115    -4.0819    -1.7321 H       
  48 H48           -2.9316     2.2892     2.5006 H       
  49 H49           -1.4889     3.3318     2.5040 H       
  50 H50           -2.6865     3.4738     1.1949 H       
  51 H51            5.5576     6.9003     0.4928 H       
  52 H52            6.2884     6.2158     3.1337 H       
  53 H53            6.0127     7.8745     2.5496 H       
  54 H54            4.6499     6.9104     3.1672 H       
  55 H55            4.0582     2.7113    -2.1426 H       
  56 H56            5.0106     2.4088    -3.6156 H       
  57 H57            5.7144     2.0714    -2.0159 H       
  58 H58            4.9647     6.1468    -3.0634 H       
  59 H59            4.3766     4.8603    -4.1438 H       
  60 H60            3.6504     5.0703    -2.5324 H       
  61 H61            7.6359     3.5590    -2.9023 H       
  62 H62            6.7040     3.9777    -4.3598 H       
  63 H63            7.2921     5.2643    -3.2795 H       
@<TRIPOS>BOND
   1    1    2 1
   2    1    3 2
   3    1   18 1
   4    2   14 1
   5    2    5 1
   6    3    4 1
   7    3    7 1
   8    4    5 2
   9    5    6 1
  10    6   20 ar
  11    6   19 ar
  12    7    8 2
  13    7   10 am
  14    9   10 1
  15    9   11 1
  16    9   12 1
  17    9   33 1
  18   10   34 1
  19   11   27 1
  20   11   35 1
  21   11   36 1
  22   12   13 2
  23   12   25 am
  24   14   15 1
  25   14   37 1
  26   14   38 1
  27   15   16 1
  28   15   39 1
  29   15   40 1
  30   16   17 1
  31   16   41 1
  32   16   42 1
  33   17   18 1
  34   17   24 1
  35   18   43 1
  36   18   44 1
  37   19   32 1
  38   19   23 ar
  39   20   21 ar
  40   20   45 1
  41   21   22 ar
  42   21   31 1
  43   22   23 ar
  44   22   46 1
  45   23   47 1
  46   24   48 1
  47   24   49 1
  48   24   50 1
  49   25   26 1
  50   25   51 1
  51   26   52 1
  52   26   53 1
  53   26   54 1
  54   27   29 1
  55   27   30 1
  56   27   28 1
  57   28   55 1
  58   28   56 1
  59   28   57 1
  60   29   58 1
  61   29   59 1
  62   29   60 1
  63   30   61 1
  64   30   62 1
  65   30   63 1

#	End of record

