#	Name: ASD01885438
#	Creating user name:	WinNT
#	Creation time:	15. 06. 2019 19:49

#	Modifying user name:	WinNT
#	Modification time:	15. 06. 2019 19:49

#	Program:	/corina/corina34_cracker 3.40 0067  02.08.2006

@<TRIPOS>MOLECULE
ASD01885438
  33   35    0    0    0
SMALL
NO_CHARGES


@<TRIPOS>ATOM
   1 C1            -0.0387     1.4155     0.0072 C.ar    
   2 C2            -0.0160     0.0211     0.0395 C.ar    
   3 N3            -1.1311    -0.7527     0.0520 N.2     
   4 C4            -2.1913    -0.5703    -0.6469 C.2     
   5 C5            -2.3331     0.6039    -1.5797 C.3     
   6 C6            -2.2852     1.8663    -0.7567 C.2     
   7 N7            -1.2064     2.1658    -0.0335 N.am    
   8 C8             1.1647     2.1197     0.0092 C.ar    
   9 C9             2.3763     1.4496     0.0379 C.ar    
  10 C10            2.3998     0.0581     0.0646 C.ar    
  11 C11            1.2212    -0.6475     0.0653 C.ar    
  12 C12           -3.2989    -1.5346    -0.5347 C.ar    
  13 O13           -3.2377     2.6172    -0.7538 O.2     
  14 C14           -3.1338    -2.7091     0.2068 C.ar    
  15 C15           -4.1714    -3.6133     0.3130 C.ar    
  16 C16           -5.3781    -3.3663    -0.3111 C.ar    
  17 C17           -5.5580    -2.1971    -1.0555 C.ar    
  18 C18           -4.5180    -1.2764    -1.1631 C.ar    
  19 C19           -6.8105    -1.9435    -1.7017 C.1     
  20 N20           -7.8041    -1.7423    -2.2142 N.1     
  21 N21            3.5723     2.1685     0.0396 N.pl3   
  22 H22           -1.5147     0.6027    -2.2996 H       
  23 H23           -3.2862     0.5432    -2.1052 H       
  24 H24           -1.2398     2.9695     0.5087 H       
  25 H25            1.1518     3.1995    -0.0122 H       
  26 H26            3.3437    -0.4663     0.0844 H       
  27 H27            1.2448    -1.7270     0.0863 H       
  28 H28           -2.1924    -2.9090     0.6970 H       
  29 H29           -4.0386    -4.5186     0.8868 H       
  30 H30           -6.1851    -4.0788    -0.2240 H       
  31 H31           -4.6518    -0.3712    -1.7368 H       
  32 H32            3.5554     3.1381     0.0206 H       
  33 H33            4.4206     1.6985     0.0597 H       
@<TRIPOS>BOND
   1    1    2 ar
   2    1    8 ar
   3    1    7 1
   4    2    3 1
   5    2   11 ar
   6    3    4 2
   7    4    5 1
   8    4   12 1
   9    5    6 1
  10    5   22 1
  11    5   23 1
  12    6    7 am
  13    6   13 2
  14    7   24 1
  15    8    9 ar
  16    8   25 1
  17    9   10 ar
  18    9   21 1
  19   10   11 ar
  20   10   26 1
  21   11   27 1
  22   12   14 ar
  23   12   18 ar
  24   14   15 ar
  25   14   28 1
  26   15   16 ar
  27   15   29 1
  28   16   17 ar
  29   16   30 1
  30   17   18 ar
  31   17   19 1
  32   18   31 1
  33   19   20 3
  34   21   32 1
  35   21   33 1

#	End of record

