#	Name: ASD03082269
#	Creating user name:	WinNT
#	Creation time:	15. 06. 2019 20:27

#	Modifying user name:	WinNT
#	Modification time:	15. 06. 2019 20:27

#	Program:	/corina/corina34_cracker 3.40 0067  02.08.2006

@<TRIPOS>MOLECULE
ASD03082269
  47   50    0    0    0
SMALL
NO_CHARGES


@<TRIPOS>ATOM
   1 N1             0.1725     1.4120    -0.5537 N.am    
   2 N2             0.0608     0.0208    -0.3970 N.2     
   3 C3             1.1293    -0.3795     0.2508 C.2     
   4 N4             1.9077     0.6743     0.5120 N.2     
   5 C5             1.3511     1.7682     0.0359 C.2     
   6 N6             1.4082    -1.6973     0.6104 N.pl3   
   7 C7             0.4592    -2.6984     0.3868 C.ar    
   8 C8             0.8641    -4.0165     0.2242 C.ar    
   9 C9            -0.0800    -5.0062     0.0026 C.ar    
  10 C10           -1.4276    -4.6782    -0.0562 C.ar    
  11 C11           -1.8290    -3.3659     0.1054 C.ar    
  12 C12           -0.8914    -2.3770     0.3326 C.ar    
  13 O13            0.3131    -6.2972    -0.1574 O.3     
  14 C14            1.9036     3.1371     0.1236 C.ar    
  15 C15           -0.7049     2.2302    -1.1680 C.2     
  16 C16            1.0617     4.2306     0.3559 C.ar    
  17 C17            1.6288     5.4911     0.4292 C.ar    
  18 C18            2.9960     5.6285     0.2722 C.ar    
  19 N19            3.7654     4.5790     0.0541 N.ar    
  20 C20            3.2739     3.3595    -0.0181 C.ar    
  21 N21           -1.7937     1.7173    -1.7746 N.am    
  22 C22           -2.7473     2.6066    -2.4423 C.3     
  23 O23           -0.5142     3.4302    -1.1749 O.2     
  24 C24            3.6170     6.9993     0.3509 C.3     
  25 C25            3.6329     7.8420    -0.9260 C.3     
  26 C26            2.6852     8.2056     0.2188 C.3     
  27 C27           -0.7140    -7.2650    -0.3823 C.3     
  28 F28           -1.4154    -6.9384    -1.5479 F       
  29 F29           -0.1379    -8.5320    -0.5242 F       
  30 F30           -1.5942    -7.2721     0.7051 F       
  31 H31            2.2610    -1.9193     1.0157 H       
  32 H32            1.9130    -4.2698     0.2699 H       
  33 H33           -2.1633    -5.4498    -0.2289 H       
  34 H34           -2.8780    -3.1135     0.0584 H       
  35 H35           -1.2082    -1.3528     0.4637 H       
  36 H36           -0.0031     4.0946     0.4745 H       
  37 H37            1.0100     6.3582     0.6069 H       
  38 H38            3.9360     2.5253    -0.1977 H       
  39 H39           -1.9458     0.7593    -1.7691 H       
  40 H40           -2.2386     3.1558    -3.2346 H       
  41 H41           -3.5562     2.0155    -2.8715 H       
  42 H42           -3.1567     3.3104    -1.7174 H       
  43 H43            4.4680     7.0918     1.0256 H       
  44 H44            4.4942     8.4893    -1.0912 H       
  45 H45            3.1942     7.4049    -1.8230 H       
  46 H46            1.6230     8.0078     0.0749 H       
  47 H47            2.9231     9.0921     0.8068 H       
@<TRIPOS>BOND
   1    1    2 1
   2    1    5 1
   3    1   15 am
   4    2    3 2
   5    3    4 1
   6    3    6 1
   7    4    5 2
   8    5   14 1
   9    6    7 1
  10    6   31 1
  11    7    8 ar
  12    7   12 ar
  13    8    9 ar
  14    8   32 1
  15    9   10 ar
  16    9   13 1
  17   10   11 ar
  18   10   33 1
  19   11   12 ar
  20   11   34 1
  21   12   35 1
  22   13   27 1
  23   14   16 ar
  24   14   20 ar
  25   15   21 am
  26   15   23 2
  27   16   17 ar
  28   16   36 1
  29   17   18 ar
  30   17   37 1
  31   18   19 ar
  32   18   24 1
  33   19   20 ar
  34   20   38 1
  35   21   22 1
  36   21   39 1
  37   22   40 1
  38   22   41 1
  39   22   42 1
  40   24   25 1
  41   24   26 1
  42   24   43 1
  43   25   26 1
  44   25   44 1
  45   25   45 1
  46   26   46 1
  47   26   47 1
  48   27   28 1
  49   27   29 1
  50   27   30 1

#	End of record

