#	Name: ASD01917814
#	Creating user name:	WinNT
#	Creation time:	15. 06. 2019 20:10

#	Modifying user name:	WinNT
#	Modification time:	15. 06. 2019 20:10

#	Program:	/corina/corina34_cracker 3.40 0067  02.08.2006

@<TRIPOS>MOLECULE
ASD01917814
  52   55    0    0    0
SMALL
NO_CHARGES


@<TRIPOS>ATOM
   1 C1            -0.0162     1.3427     0.0094 C.2     
   2 C2             0.0021    -0.0041     0.0020 C.2     
   3 C3            -1.2280    -0.8758     0.0045 C.3     
   4 C4            -2.4278    -0.0382     0.4643 C.3     
   5 N5            -2.4050     1.2582    -0.2296 N.am    
   6 C6            -1.2771     2.1710     0.0315 C.3     
   7 C7            -3.3897     1.6029    -1.0828 C.2     
   8 O8            -4.3102     0.8400    -1.2865 O.2     
   9 O9             1.2559     1.7620    -0.0005 O.3     
  10 C10            2.0406     0.6728    -0.0103 C.2     
  11 N11            1.2847    -0.3909    -0.0084 N.2     
  12 C12            3.5475     0.6778    -0.0221 C.3     
  13 O13            4.0133     0.6844    -1.3731 O.3     
  14 C14            5.3591     0.6895    -1.5618 C.ar    
  15 C15            6.2137     0.6881    -0.4692 C.ar    
  16 C16            7.5817     0.6934    -0.6637 C.ar    
  17 C17            8.0987     0.7000    -1.9458 C.ar    
  18 C18            7.2488     0.7019    -3.0366 C.ar    
  19 C19            5.8806     0.6904    -2.8476 C.ar    
  20 C20           -3.3470     2.9364    -1.7836 C.3     
  21 C21           -4.5732     3.0768    -2.6878 C.3     
  22 C22           -4.5305     4.4102    -3.3886 C.ar    
  23 C23           -3.9009     4.5267    -4.6138 C.ar    
  24 C24           -3.8615     5.7490    -5.2576 C.ar    
  25 C25           -4.4530     6.8571    -4.6751 C.ar    
  26 C26           -5.0833     6.7391    -3.4479 C.ar    
  27 C27           -5.1260     5.5147    -2.8085 C.ar    
  28 C28            7.8158     0.7096    -4.4328 C.3     
  29 F29           -4.4147     8.0525    -5.3033 F       
  30 H30           -1.4102    -1.2532    -1.0017 H       
  31 H31           -1.0821    -1.7114     0.6891 H       
  32 H32           -3.3522    -0.5636     0.2246 H       
  33 H33           -2.3681     0.1236     1.5406 H       
  34 H34           -1.3965     2.6382     1.0090 H       
  35 H35           -1.2321     2.9362    -0.7434 H       
  36 H36            3.9120     1.5670     0.4922 H       
  37 H37            3.9178    -0.2130     0.4854 H       
  38 H38            5.8103     0.6833     0.5326 H       
  39 H39            8.2475     0.6927     0.1866 H       
  40 H40            9.1683     0.7041    -2.0957 H       
  41 H41            5.2172     0.6915    -3.6998 H       
  42 H42           -3.3482     3.7362    -1.0430 H       
  43 H43           -2.4414     3.0010    -2.3867 H       
  44 H44           -4.5720     2.2769    -3.4283 H       
  45 H45           -5.4788     3.0121    -2.0847 H       
  46 H46           -3.4393     3.6623    -5.0679 H       
  47 H47           -3.3692     5.8398    -6.2146 H       
  48 H48           -5.5450     7.6028    -2.9926 H       
  49 H49           -5.6176     5.4225    -1.8513 H       
  50 H50            7.9559    -0.3162    -4.7738 H       
  51 H51            7.1263     1.2240    -5.1022 H       
  52 H52            8.7755     1.2265    -4.4324 H       
@<TRIPOS>BOND
   1    1    2 2
   2    1    9 1
   3    1    6 1
   4    2    3 1
   5    2   11 1
   6    3    4 1
   7    3   30 1
   8    3   31 1
   9    4    5 1
  10    4   32 1
  11    4   33 1
  12    5    6 1
  13    5    7 am
  14    6   34 1
  15    6   35 1
  16    7    8 2
  17    7   20 1
  18    9   10 1
  19   10   11 2
  20   10   12 1
  21   12   13 1
  22   12   36 1
  23   12   37 1
  24   13   14 1
  25   14   15 ar
  26   14   19 ar
  27   15   16 ar
  28   15   38 1
  29   16   17 ar
  30   16   39 1
  31   17   18 ar
  32   17   40 1
  33   18   19 ar
  34   18   28 1
  35   19   41 1
  36   20   21 1
  37   20   42 1
  38   20   43 1
  39   21   22 1
  40   21   44 1
  41   21   45 1
  42   22   23 ar
  43   22   27 ar
  44   23   24 ar
  45   23   46 1
  46   24   25 ar
  47   24   47 1
  48   25   26 ar
  49   25   29 1
  50   26   27 ar
  51   26   48 1
  52   27   49 1
  53   28   50 1
  54   28   51 1
  55   28   52 1

#	End of record

