#	Name: ASD01420180
#	Creating user name:	WinNT
#	Creation time:	15. 06. 2019 19:20

#	Modifying user name:	WinNT
#	Modification time:	15. 06. 2019 19:20

#	Program:	/corina/corina34_cracker 3.40 0067  02.08.2006

@<TRIPOS>MOLECULE
ASD01420180
  59   62    0    0    0
SMALL
NO_CHARGES


@<TRIPOS>ATOM
   1 C1            -0.0144     1.2120     0.0087 C.2     
   2 O2             0.1295     0.0133     0.1552 O.2     
   3 C3             1.0483     3.4383    -0.4768 C.3     
   4 N4             1.0607     2.0008    -0.1874 N.am    
   5 C5             2.4667     1.5859    -0.1516 C.3     
   6 C6             3.3113     2.8044    -0.4260 C.ar    
   7 C7             4.6843     2.9633    -0.5053 C.ar    
   8 C8             5.2236     4.2064    -0.7742 C.ar    
   9 C9             4.3911     5.2936    -0.9651 C.ar    
  10 C10            3.0210     5.1355    -0.8866 C.ar    
  11 C11            2.4800     3.8901    -0.6166 C.ar    
  12 C12            6.7184     4.3774    -0.8590 C.3     
  13 N13            7.1585     4.1592    -2.2435 N.3     
  14 C14            8.5645     4.5462    -2.4160 C.3     
  15 C15            9.0290     4.1713    -3.8251 C.3     
  16 C16            8.1523     4.8900    -4.8544 C.3     
  17 C17            6.6881     4.5073    -4.6221 C.3     
  18 C18            6.2914     4.8726    -3.1899 C.3     
  19 C19           -1.3642     1.8010     0.0395 C.ar    
  20 C20           -2.2645     1.4465     1.0559 C.ar    
  21 C21           -3.5307     2.0050     1.0777 C.ar    
  22 C22           -3.9067     2.9113     0.0970 C.ar    
  23 C23           -3.0151     3.2637    -0.9114 C.ar    
  24 C24           -1.7517     2.7198    -0.9405 C.ar    
  25 C25           -3.4329     4.2492    -1.9722 C.3     
  26 C26           -2.5004     5.4617    -1.9376 C.3     
  27 C27           -3.3523     3.5831    -3.3473 C.3     
  28 O28           -5.1494     3.4562     0.1211 O.3     
  29 O29           -1.8953     0.5593     2.0135 O.3     
  30 H30            0.5100     3.6233    -1.4063 H       
  31 H31            0.5695     3.9758     0.3417 H       
  32 H32            2.7080     1.1830     0.8320 H       
  33 H33            2.6485     0.8305    -0.9161 H       
  34 H34            5.3349     2.1141    -0.3562 H       
  35 H35            4.8117     6.2659    -1.1750 H       
  36 H36            2.3709     5.9850    -1.0353 H       
  37 H37            6.9870     5.3867    -0.5472 H       
  38 H38            7.2047     3.6536    -0.2049 H       
  39 H39            8.6649     5.6224    -2.2748 H       
  40 H40            9.1775     4.0249    -1.6808 H       
  41 H41           10.0680     4.4728    -3.9581 H       
  42 H42            8.9419     3.0934    -3.9623 H       
  43 H43            8.2692     5.9680    -4.7430 H       
  44 H44            8.4517     4.5922    -5.8593 H       
  45 H45            6.0545     5.0490    -5.3246 H       
  46 H46            6.5641     3.4348    -4.7718 H       
  47 H47            5.2535     4.5883    -3.0168 H       
  48 H48            6.4025     5.9472    -3.0451 H       
  49 H49           -4.2265     1.7348     1.8582 H       
  50 H50           -1.0610     2.9993    -1.7224 H       
  51 H51           -4.4567     4.5727    -1.7846 H       
  52 H52           -1.4766     5.1382    -2.1251 H       
  53 H53           -2.8026     6.1745    -2.7048 H       
  54 H54           -2.5578     5.9363    -0.9580 H       
  55 H55           -3.6545     4.2959    -4.1146 H       
  56 H56           -2.3285     3.2596    -3.5348 H       
  57 H57           -4.0166     2.7192    -3.3720 H       
  58 H58           -5.2087     4.2784     0.6267 H       
  59 H59           -1.4865     0.9659     2.7898 H       
@<TRIPOS>BOND
   1    1    2 2
   2    1    4 am
   3    1   19 1
   4    3    4 1
   5    3   11 1
   6    3   30 1
   7    3   31 1
   8    4    5 1
   9    5    6 1
  10    5   32 1
  11    5   33 1
  12    6    7 ar
  13    6   11 ar
  14    7    8 ar
  15    7   34 1
  16    8    9 ar
  17    8   12 1
  18    9   10 ar
  19    9   35 1
  20   10   11 ar
  21   10   36 1
  22   12   13 1
  23   12   37 1
  24   12   38 1
  25   13   14 1
  26   13   18 1
  27   14   15 1
  28   14   39 1
  29   14   40 1
  30   15   16 1
  31   15   41 1
  32   15   42 1
  33   16   17 1
  34   16   43 1
  35   16   44 1
  36   17   18 1
  37   17   45 1
  38   17   46 1
  39   18   47 1
  40   18   48 1
  41   19   20 ar
  42   19   24 ar
  43   20   21 ar
  44   20   29 1
  45   21   22 ar
  46   21   49 1
  47   22   23 ar
  48   22   28 1
  49   23   24 ar
  50   23   25 1
  51   24   50 1
  52   25   26 1
  53   25   27 1
  54   25   51 1
  55   26   52 1
  56   26   53 1
  57   26   54 1
  58   27   55 1
  59   27   56 1
  60   27   57 1
  61   28   58 1
  62   29   59 1

#	End of record

