#	Name: ASD00190027
#	Creating user name:	WinNT
#	Creation time:	15. 06. 2019 18:33

#	Modifying user name:	WinNT
#	Modification time:	15. 06. 2019 18:33

#	Program:	/corina/corina34_cracker 3.40 0067  02.08.2006

@<TRIPOS>MOLECULE
ASD00190027
  45   49    0    0    0
SMALL
NO_CHARGES


@<TRIPOS>ATOM
   1 C1            -0.0142     1.3575     0.0071 C.ar    
   2 C2             0.0049    -0.0052    -0.0078 C.ar    
   3 C3             1.2069    -0.7047    -0.0369 C.ar    
   4 C4             2.3990    -0.0413    -0.0513 C.ar    
   5 C5             2.4138     1.3571    -0.0370 C.ar    
   6 C6             1.1926     2.0734    -0.0074 C.ar    
   7 C7             3.6589     2.1125    -0.0519 C.ar    
   8 C8             3.5789     3.5085    -0.0364 C.ar    
   9 C9             2.3057     4.1210    -0.0073 C.ar    
  10 N10            1.1984     3.4146     0.0060 N.ar    
  11 N11            4.9900     1.8002    -0.0790 N.pl3   
  12 C12            5.6815     2.9726    -0.0797 C.2     
  13 N13            4.8504     3.9750    -0.0546 N.2     
  14 N14            2.2232     5.5040     0.0081 N.pl3   
  15 C15            0.9768     6.1311    -0.0830 C.ar    
  16 C16            7.1835     3.0927    -0.1047 C.3     
  17 C17            7.7441     2.9951     1.3250 C.3     
  18 C18            8.6759     1.7659     1.3500 C.3     
  19 C19            9.0940     1.5761    -0.1293 C.3     
  20 C20            7.7943     1.9194    -0.8986 C.3     
  21 C21            0.7425     7.3164     0.6021 C.ar    
  22 C22           -0.4896     7.9336     0.5104 C.ar    
  23 C23           -1.4902     7.3721    -0.2633 C.ar    
  24 C24           -1.2597     6.1910    -0.9466 C.ar    
  25 C25           -0.0276     5.5728    -0.8633 C.ar    
  26 Cl26          -3.0378     8.1506    -0.3763 Cl      
  27 H27           -0.9562     1.8853     0.0256 H       
  28 H28           -0.9274    -0.5502     0.0034 H       
  29 H29            1.1963    -1.7846    -0.0479 H       
  30 H30            3.3270    -0.5935    -0.0732 H       
  31 H31            5.3709     0.9082    -0.0945 H       
  32 H32            3.0301     6.0372     0.0821 H       
  33 H33            7.4745     4.0413    -0.5559 H       
  34 H34            8.3078     3.8960     1.5673 H       
  35 H35            6.9297     2.8609     2.0369 H       
  36 H36            9.5497     1.9623     1.9712 H       
  37 H37            8.1398     0.8881     1.7106 H       
  38 H38            9.8946     2.2660    -0.3960 H       
  39 H39            9.3929     0.5448    -0.3168 H       
  40 H40            7.1158     1.0664    -0.9011 H       
  41 H41            8.0248     2.2278    -1.9183 H       
  42 H42            1.5230     7.7549     1.2063 H       
  43 H43           -0.6724     8.8551     1.0431 H       
  44 H44           -2.0427     5.7546    -1.5490 H       
  45 H45            0.1518     4.6510    -1.3968 H       
@<TRIPOS>BOND
   1    1    2 ar
   2    1    6 ar
   3    1   27 1
   4    2    3 ar
   5    2   28 1
   6    3    4 ar
   7    3   29 1
   8    4    5 ar
   9    4   30 1
  10    5    6 ar
  11    5    7 ar
  12    6   10 ar
  13    7    8 ar
  14    7   11 1
  15    8    9 ar
  16    8   13 1
  17    9   10 ar
  18    9   14 1
  19   11   12 1
  20   11   31 1
  21   12   13 2
  22   12   16 1
  23   14   15 1
  24   14   32 1
  25   15   21 ar
  26   15   25 ar
  27   16   17 1
  28   16   20 1
  29   16   33 1
  30   17   18 1
  31   17   34 1
  32   17   35 1
  33   18   19 1
  34   18   36 1
  35   18   37 1
  36   19   20 1
  37   19   38 1
  38   19   39 1
  39   20   40 1
  40   20   41 1
  41   21   22 ar
  42   21   42 1
  43   22   23 ar
  44   22   43 1
  45   23   24 ar
  46   23   26 1
  47   24   25 ar
  48   24   44 1
  49   25   45 1

#	End of record

