#	Name: ASD08710081
#	Creating user name:	WinNT
#	Creation time:	15. 06. 2019 21:19

#	Modifying user name:	WinNT
#	Modification time:	15. 06. 2019 21:19

#	Program:	/corina/corina34_cracker 3.40 0067  02.08.2006

@<TRIPOS>MOLECULE
ASD08710081
  60   61    0    0    0
SMALL
NO_CHARGES


@<TRIPOS>ATOM
   1 C1             0.0125     2.8434    -1.2209 C.1     
   2 C2             0.0997     4.1428    -0.6254 C.ar    
   3 C3            -0.6534     4.4456     0.5110 C.ar    
   4 C4            -0.5646     5.6992     1.0794 C.ar    
   5 C5             0.2683     6.6558     0.5261 C.ar    
   6 C6             1.0168     6.3628    -0.5998 C.ar    
   7 C7             0.9423     5.1109    -1.1749 C.ar    
   8 N8            -0.0567     1.8126    -1.6932 N.1     
   9 C9            -1.3768     6.0280     2.3055 C.3     
  10 S10            0.3756     8.2547     1.2588 S.o2    
  11 O11            1.3428     8.9760     0.5081 O.2     
  12 O12           -0.9604     8.7035     1.4399 O.2     
  13 N13            1.0122     8.0575     2.7748 N.am    
  14 C14            2.4648     7.9432     2.9670 C.3     
  15 C15            2.9121     9.0140     3.9698 C.3     
  16 N16            2.0347     8.9506     5.1471 N.am    
  17 C17            0.5822     9.0649     4.9549 C.3     
  18 C18            0.1352     7.9997     3.9526 C.3     
  19 C19            4.3585     8.7493     4.3925 C.3     
  20 C20            2.5529     8.7902     6.3809 C.2     
  21 O21            3.7585     8.7908     6.5388 O.2     
  22 C22            1.8030     7.5132     8.3864 C.ar    
  23 C23            1.6571     8.6137     7.5400 C.ar    
  24 C24            0.6468     9.5498     7.8075 C.ar    
  25 C25           -0.1608     9.3464     8.8940 C.ar    
  26 C26            0.0419     8.2251     9.6962 C.ar    
  27 N27            1.0045     7.3552     9.4211 N.ar    
  28 C28            2.8790     6.4949     8.1100 C.3     
  29 N29           -0.7728     8.0164    10.7962 N.pl3   
  30 C30           -1.9067     8.9093    11.0478 C.3     
  31 C31           -0.5009     6.9028    11.7084 C.3     
  32 H32           -1.3041     3.7000     0.9436 H       
  33 H33            1.6643     7.1143    -1.0269 H       
  34 H34            1.5308     4.8819    -2.0511 H       
  35 H35           -0.8026     5.7814     3.1986 H       
  36 H36           -1.6152     7.0916     2.3089 H       
  37 H37           -2.3001     5.4487     2.2957 H       
  38 H38            2.7056     6.9540     3.3563 H       
  39 H39            2.9730     8.0982     2.0153 H       
  40 H40            2.8372     9.9996     3.5103 H       
  41 H41            0.0739     8.9099     5.9066 H       
  42 H42            0.3414    10.0541     4.5656 H       
  43 H43           -0.8946     8.1920     3.6517 H       
  44 H44            0.2063     7.0146     4.4137 H       
  45 H45            4.9872     8.6684     3.5058 H       
  46 H46            4.7116     9.5718     5.0145 H       
  47 H47            4.4072     7.8190     4.9584 H       
  48 H48            0.5096    10.4114     7.1710 H       
  49 H49           -0.9475    10.0486     9.1274 H       
  50 H50            3.7723     6.7460     8.6818 H       
  51 H51            2.5267     5.5057     8.4022 H       
  52 H52            3.1162     6.4966     7.0461 H       
  53 H53           -2.5926     8.8729    10.2014 H       
  54 H54           -2.4269     8.5903    11.9510 H       
  55 H55           -1.5443     9.9290    11.1782 H       
  56 H56            0.1718     7.2363    12.4985 H       
  57 H57           -1.4361     6.5575    12.1491 H       
  58 H58           -0.0361     6.0860    11.1562 H       
  59 Cl59           9.9872    15.4114    17.4985 Cl      
  60 H60            9.9872    16.7814    17.4985 H       
@<TRIPOS>BOND
   1    1    2 1
   2    1    8 3
   3    2    3 ar
   4    2    7 ar
   5    3    4 ar
   6    3   32 1
   7    4    5 ar
   8    4    9 1
   9    5    6 ar
  10    5   10 1
  11    6    7 ar
  12    6   33 1
  13    7   34 1
  14    9   35 1
  15    9   36 1
  16    9   37 1
  17   10   11 2
  18   10   12 2
  19   10   13 am
  20   13   14 1
  21   13   18 1
  22   14   15 1
  23   14   38 1
  24   14   39 1
  25   15   16 1
  26   15   19 1
  27   15   40 1
  28   16   17 1
  29   16   20 am
  30   17   18 1
  31   17   41 1
  32   17   42 1
  33   18   43 1
  34   18   44 1
  35   19   45 1
  36   19   46 1
  37   19   47 1
  38   20   21 2
  39   20   23 1
  40   22   23 ar
  41   22   27 ar
  42   22   28 1
  43   23   24 ar
  44   24   25 ar
  45   24   48 1
  46   25   26 ar
  47   25   49 1
  48   26   27 ar
  49   26   29 1
  50   28   50 1
  51   28   51 1
  52   28   52 1
  53   29   30 1
  54   29   31 1
  55   30   53 1
  56   30   54 1
  57   30   55 1
  58   31   56 1
  59   31   57 1
  60   31   58 1
  61   59   60 1

#	End of record

