#	Name: ASD05380027
#	Creating user name:	WinNT
#	Creation time:	15. 06. 2019 20:59

#	Modifying user name:	WinNT
#	Modification time:	15. 06. 2019 20:59

#	Program:	/corina/corina34_cracker 3.40 0067  02.08.2006

@<TRIPOS>MOLECULE
ASD05380027
  50   54    0    0    0
SMALL
NO_CHARGES


@<TRIPOS>ATOM
   1 C1            -0.2705     1.7437    -0.3083 C.ar    
   2 C2            -0.0037     0.3805    -0.5671 C.ar    
   3 C3             0.6309     2.7220    -0.7219 C.ar    
   4 C4             1.7810     2.3496    -1.3833 C.ar    
   5 C5             2.0461     1.0110    -1.6397 C.ar    
   6 C6             1.1686     0.0285    -1.2385 C.ar    
   7 C7             0.3501     4.1772    -0.4484 C.3     
   8 N8            -0.8955    -0.5547    -0.1546 N.2     
   9 C9            -1.9853    -0.2271     0.4706 C.2     
  10 N10           -2.3226     1.0585     0.7617 N.am    
  11 C11           -1.5102     2.0810     0.4064 C.2     
  12 C12           -3.5187     1.3257     1.4396 C.ar    
  13 C13           -4.6880     1.5511     0.7253 C.ar    
  14 C14           -3.5390     1.3601     2.8277 C.ar    
  15 C15           -4.7201     1.6234     3.4934 C.ar    
  16 C16           -5.8818     1.8522     2.7790 C.ar    
  17 C17           -5.8660     1.8139     1.3968 C.ar    
  18 C18           -2.9245    -1.3265     0.8950 C.3     
  19 N19           -2.9248    -2.3861    -0.1168 N.pl3   
  20 C20           -4.0225    -3.2177    -0.2470 C.ar    
  21 N21           -5.0863    -3.0702     0.5374 N.ar    
  22 O22           -1.7993     3.2359     0.6604 O.2     
  23 C23           -4.0440    -4.2342    -1.2138 C.ar    
  24 C24           -5.1844    -5.0535    -1.3067 C.ar    
  25 N25           -6.1984    -4.8301    -0.4723 N.ar    
  26 C26           -6.1366    -3.8618     0.4160 C.ar    
  27 C27           -3.1160    -4.7089    -2.2384 C.2     
  28 C28           -3.7171    -5.7359    -2.8610 C.2     
  29 N29           -4.9549    -5.9515    -2.3125 N.pl3   
  30 C30           -2.4636    -1.9018     2.2357 C.3     
  31 H31            2.4820     3.1054    -1.7054 H       
  32 H32            2.9520     0.7369    -2.1600 H       
  33 H33            1.3860    -1.0095    -1.4429 H       
  34 H34            0.6698     4.4249     0.5638 H       
  35 H35            0.8961     4.7931    -1.1629 H       
  36 H36           -0.7188     4.3659    -0.5483 H       
  37 H37           -4.6762     1.5213    -0.3542 H       
  38 H38           -2.6321     1.1808     3.3862 H       
  39 H39           -4.7365     1.6503     4.5729 H       
  40 H40           -6.8044     2.0572     3.3019 H       
  41 H41           -6.7748     1.9934     0.8417 H       
  42 H42           -3.9319    -0.9236     0.9995 H       
  43 H43           -2.1553    -2.5045    -0.6953 H       
  44 H44           -6.9795    -3.7080     1.0735 H       
  45 H45           -2.1356    -4.3103    -2.4537 H       
  46 H46           -3.2897    -6.3062    -3.6725 H       
  47 H47           -5.5766    -6.6402    -2.5958 H       
  48 H48           -3.1245    -2.7181     2.5273 H       
  49 H49           -1.4445    -2.2761     2.1394 H       
  50 H50           -2.4936    -1.1209     2.9956 H       
@<TRIPOS>BOND
   1    1    2 ar
   2    1    3 ar
   3    1   11 1
   4    2    8 1
   5    2    6 ar
   6    3    4 ar
   7    3    7 1
   8    4    5 ar
   9    4   31 1
  10    5    6 ar
  11    5   32 1
  12    6   33 1
  13    7   34 1
  14    7   35 1
  15    7   36 1
  16    8    9 2
  17    9   10 1
  18    9   18 1
  19   10   11 am
  20   10   12 1
  21   11   22 2
  22   12   13 ar
  23   12   14 ar
  24   13   17 ar
  25   13   37 1
  26   14   15 ar
  27   14   38 1
  28   15   16 ar
  29   15   39 1
  30   16   17 ar
  31   16   40 1
  32   17   41 1
  33   18   19 1
  34   18   30 1
  35   18   42 1
  36   19   20 1
  37   19   43 1
  38   20   21 ar
  39   20   23 ar
  40   21   26 ar
  41   23   24 ar
  42   23   27 1
  43   24   25 ar
  44   24   29 1
  45   25   26 ar
  46   26   44 1
  47   27   28 2
  48   27   45 1
  49   28   29 1
  50   28   46 1
  51   29   47 1
  52   30   48 1
  53   30   49 1
  54   30   50 1

#	End of record

