#	Name: ASD01911633
#	Creating user name:	WinNT
#	Creation time:	15. 06. 2019 19:58

#	Modifying user name:	WinNT
#	Modification time:	15. 06. 2019 19:58

#	Program:	/corina/corina34_cracker 3.40 0067  02.08.2006

@<TRIPOS>MOLECULE
ASD01911633
  40   42    0    0    0
SMALL
NO_CHARGES


@<TRIPOS>ATOM
   1 O1             0.0021    -0.0041     0.0020 O.2     
   2 C2            -0.0144     1.2130     0.0087 C.2     
   3 C3             1.2443     1.9627     0.0007 C.2     
   4 C4             2.5022     1.4231    -0.0142 C.2     
   5 S5             1.4047     3.7180     0.0009 S.3     
   6 C6             3.1584     3.5561    -0.0111 C.2     
   7 N7             3.4785     2.2858    -0.0189 N.2     
   8 C8             4.0896     4.6439    -0.0173 C.1     
   9 C9             4.8531     5.5357    -0.0225 C.1     
  10 C10            5.7843     6.6236    -0.0287 C.ar    
  11 C11            7.1595     6.3712    -0.0382 C.ar    
  12 C12            7.5857     8.7278    -0.0408 C.ar    
  13 C13            6.2259     8.9857    -0.0372 C.ar    
  14 C14            5.3229     7.9435    -0.0312 C.ar    
  15 N15           -1.1906     1.8709     0.0179 N.am    
  16 C16            8.0500     7.4241    -0.0441 C.ar    
  17 C17           -2.4493     1.1212     0.0198 C.3     
  18 C18           -3.5536     1.9801     0.6393 C.3     
  19 C19           -4.8681     1.1972     0.6413 C.3     
  20 C20           -5.2487     0.8360    -0.7959 C.3     
  21 C21           -4.1445    -0.0229    -1.4155 C.3     
  22 C22           -2.8300     0.7601    -1.4174 C.3     
  23 H23            2.6734     0.3567    -0.0212 H       
  24 H24            7.5234     5.3544    -0.0405 H       
  25 H25            8.2880     9.5483    -0.0458 H       
  26 H26            5.8711    10.0057    -0.0342 H       
  27 H27            4.2621     8.1462    -0.0288 H       
  28 H28           -1.2038     2.8408     0.0232 H       
  29 H29            9.1126     7.2308    -0.0511 H       
  30 H30           -2.3279     0.2089     0.6037 H       
  31 H31           -3.2824     2.2375     1.6632 H       
  32 H32           -3.6749     2.8925     0.0554 H       
  33 H33           -4.7467     0.2849     1.2252 H       
  34 H34           -5.6547     1.8091     1.0827 H       
  35 H35           -6.1852     0.2783    -0.7945 H       
  36 H36           -5.3701     1.7484    -1.3798 H       
  37 H37           -4.0231    -0.9352    -0.8315 H       
  38 H38           -4.4156    -0.2802    -2.4394 H       
  39 H39           -2.9513     1.6724    -2.0014 H       
  40 H40           -2.0433     0.1482    -1.8588 H       
@<TRIPOS>BOND
   1    1    2 2
   2    2    3 1
   3    2   15 am
   4    3    4 2
   5    3    5 1
   6    4    7 1
   7    4   23 1
   8    5    6 1
   9    6    7 2
  10    6    8 1
  11    8    9 3
  12    9   10 1
  13   10   11 ar
  14   10   14 ar
  15   11   16 ar
  16   11   24 1
  17   12   13 ar
  18   12   16 ar
  19   12   25 1
  20   13   14 ar
  21   13   26 1
  22   14   27 1
  23   15   17 1
  24   15   28 1
  25   16   29 1
  26   17   18 1
  27   17   22 1
  28   17   30 1
  29   18   19 1
  30   18   31 1
  31   18   32 1
  32   19   20 1
  33   19   33 1
  34   19   34 1
  35   20   21 1
  36   20   35 1
  37   20   36 1
  38   21   22 1
  39   21   37 1
  40   21   38 1
  41   22   39 1
  42   22   40 1

#	End of record

