#	Name: ASD02560033
#	Creating user name:	WinNT
#	Creation time:	15. 06. 2019 20:24

#	Modifying user name:	WinNT
#	Modification time:	15. 06. 2019 20:24

#	Program:	/corina/corina34_cracker 3.40 0067  02.08.2006

@<TRIPOS>MOLECULE
ASD02560033
  53   56    0    0    0
SMALL
NO_CHARGES


@<TRIPOS>ATOM
   1 C1             0.0972     1.4627    -0.3225 C.2     
   2 C2             0.1479     0.1334    -0.3134 C.2     
   3 C3             1.4686    -0.5156    -0.1784 C.ar    
   4 C4             2.5539     0.2599     0.2273 C.ar    
   5 O5             2.3580     1.5693     0.5174 O.3     
   6 C6             1.3665     2.2684    -0.2345 C.3     
   7 C7             1.6328    -1.8836    -0.4522 C.ar    
   8 C8             2.8825    -2.4627    -0.3420 C.ar    
   9 C9             3.9803    -1.6983     0.0470 C.ar    
  10 C10            3.8208    -0.3295     0.3317 C.ar    
  11 O11            5.1929    -2.2825     0.1467 O.3     
  12 C12            6.2529    -1.5536     0.5164 C.2     
  13 C13            6.1531    -0.1810     0.8115 C.2     
  14 C14            4.9475     0.4401     0.7227 C.2     
  15 C15            4.8102     1.9084     1.0330 C.3     
  16 C16            4.3487     2.0826     2.4813 C.3     
  17 C17            4.2867     3.5732     2.8210 C.3     
  18 O18            0.5415    -2.6037    -0.8158 O.3     
  19 C19            0.7525    -3.8658    -1.4492 C.3     
  20 C20            1.7597    -4.6637    -0.6110 C.3     
  21 C21            3.0997    -3.9251    -0.6412 C.3     
  22 C22            1.8960     2.5298    -1.6459 C.3     
  23 C23            1.0681     3.6057     0.4463 C.3     
  24 O24            7.3402    -2.0965     0.6007 O.2     
  25 C25            1.9291    -6.0642    -1.2033 C.3     
  26 C26           -0.5707    -4.6297    -1.5301 C.3     
  27 O27            3.6893    -4.0628    -1.9356 O.3     
  28 H28           -0.8559     1.9651    -0.3977 H       
  29 H29           -0.7527    -0.4561    -0.4019 H       
  30 H30            7.0302     0.3759     1.1062 H       
  31 H31            5.7734     2.4002     0.8970 H       
  32 H32            4.0764     2.3546     0.3617 H       
  33 H33            3.3597     1.6408     2.6032 H       
  34 H34            5.0530     1.5867     3.1492 H       
  35 H35            3.5824     4.0691     2.1531 H       
  36 H36            3.9580     3.6973     3.8528 H       
  37 H37            5.2757     4.0150     2.6992 H       
  38 H38            1.1501    -3.7115    -2.4523 H       
  39 H39            1.4046    -4.7391     0.4167 H       
  40 H40            3.7665    -4.3531     0.1073 H       
  41 H41            2.1339     1.5807    -2.1263 H       
  42 H42            1.1364     3.0514    -2.2281 H       
  43 H43            2.7950     3.1435    -1.5888 H       
  44 H44            1.9798     4.2015     0.4920 H       
  45 H45            0.3111     4.1432    -0.1248 H       
  46 H46            0.7010     3.4252     1.4566 H       
  47 H47            2.2944    -5.9840    -2.2271 H       
  48 H48            2.6452    -6.6276    -0.6051 H       
  49 H49            0.9682    -6.5789    -1.1997 H       
  50 H50           -1.2898    -4.0505    -2.1093 H       
  51 H51           -0.4055    -5.5923    -2.0141 H       
  52 H52           -0.9594    -4.7905    -0.5246 H       
  53 H53            4.5432    -3.6186    -2.0282 H       
@<TRIPOS>BOND
   1    1    2 2
   2    1    6 1
   3    1   28 1
   4    2    3 1
   5    2   29 1
   6    3    4 ar
   7    3    7 ar
   8    4    5 1
   9    4   10 ar
  10    5    6 1
  11    6   22 1
  12    6   23 1
  13    7    8 ar
  14    7   18 1
  15    8    9 ar
  16    8   21 1
  17    9   10 ar
  18    9   11 1
  19   10   14 1
  20   11   12 1
  21   12   13 1
  22   12   24 2
  23   13   14 2
  24   13   30 1
  25   14   15 1
  26   15   16 1
  27   15   31 1
  28   15   32 1
  29   16   17 1
  30   16   33 1
  31   16   34 1
  32   17   35 1
  33   17   36 1
  34   17   37 1
  35   18   19 1
  36   19   20 1
  37   19   26 1
  38   19   38 1
  39   20   21 1
  40   20   25 1
  41   20   39 1
  42   21   27 1
  43   21   40 1
  44   22   41 1
  45   22   42 1
  46   22   43 1
  47   23   44 1
  48   23   45 1
  49   23   46 1
  50   25   47 1
  51   25   48 1
  52   25   49 1
  53   26   50 1
  54   26   51 1
  55   26   52 1
  56   27   53 1

#	End of record

