#	Name: ASD09890085
#	Creating user name:	WinNT
#	Creation time:	15. 06. 2019 21:24

#	Modifying user name:	WinNT
#	Modification time:	15. 06. 2019 21:24

#	Program:	/corina/corina34_cracker 3.40 0067  02.08.2006

@<TRIPOS>MOLECULE
ASD09890085
  48   51    0    0    0
SMALL
NO_CHARGES


@<TRIPOS>ATOM
   1 C1            -0.0176     1.3671     0.0633 C.2     
   2 N2            -0.0054    -0.0002     0.0337 N.pl3   
   3 C3            -1.2996    -0.4352     0.1159 C.2     
   4 N4            -2.0760     0.6192     0.1929 N.2     
   5 N5            -1.2621     1.7592     0.1651 N.2     
   6 S6            -1.8303    -2.1154     0.1175 S.3     
   7 C7            -3.6340    -1.9735     0.2481 C.3     
   8 C8             1.1336    -0.8132    -0.0644 C.ar    
   9 C9             2.0775    -0.8326     0.9582 C.ar    
  10 C10            3.1860    -1.6516     0.8156 C.ar    
  11 C11            3.3173    -2.4165    -0.3282 C.ar    
  12 N12            2.4045    -2.3753    -1.2792 N.ar    
  13 C13            1.3328    -1.6144    -1.1805 C.ar    
  14 C14           -4.2815    -3.3650     0.1378 C.3     
  15 C15           -5.0398    -3.6043     1.4598 C.3     
  16 C16           -5.3172    -2.1800     2.0017 C.3     
  17 C17           -4.0214    -1.4157     1.6332 C.3     
  18 O18            1.0702     2.1752     0.0035 O.3     
  19 C19            0.8650     3.5152    -0.0919 C.ar    
  20 C20            1.9373     4.3907     0.0023 C.ar    
  21 C21           -0.4164     4.0095    -0.2895 C.ar    
  22 C22           -0.6228     5.3719    -0.3867 C.ar    
  23 C23            0.4474     6.2435    -0.2876 C.ar    
  24 C24            1.7267     5.7524    -0.0954 C.ar    
  25 Cl25           0.1855     7.9552    -0.4113 Cl      
  26 C26           -2.0143     5.9093    -0.6012 C.3     
  27 C27            2.8903     6.7040     0.0121 C.3     
  28 H28           -4.0148    -1.3211    -0.5378 H       
  29 H29            1.9493    -0.2239     1.8411 H       
  30 H30            3.9388    -1.6917     1.5890 H       
  31 H31            4.1794    -3.0565    -0.4448 H       
  32 H32            0.6070    -1.6071    -1.9802 H       
  33 H33           -4.9772    -3.3877    -0.7010 H       
  34 H34           -3.5120    -4.1256     0.0058 H       
  35 H35           -5.9759    -4.1303     1.2728 H       
  36 H36           -4.4194    -4.1645     2.1593 H       
  37 H37           -6.1807    -1.7388     1.5039 H       
  38 H38           -5.4606    -2.1989     3.0820 H       
  39 H39           -3.2365    -1.6225     2.3608 H       
  40 H40           -4.2143    -0.3446     1.5728 H       
  41 H41            2.9360     4.0078     0.1524 H       
  42 H42           -1.2518     3.3295    -0.3675 H       
  43 H43           -2.4866     6.0907     0.3642 H       
  44 H44           -1.9608     6.8432    -1.1608 H       
  45 H45           -2.6018     5.1826    -1.1624 H       
  46 H46            3.0367     6.9824     1.0557 H       
  47 H47            3.7914     6.2201    -0.3647 H       
  48 H48            2.6844     7.5977    -0.5769 H       
@<TRIPOS>BOND
   1    1    2 1
   2    1   18 1
   3    1    5 2
   4    2    3 1
   5    2    8 1
   6    3    4 2
   7    3    6 1
   8    4    5 1
   9    6    7 1
  10    7   14 1
  11    7   17 1
  12    7   28 1
  13    8    9 ar
  14    8   13 ar
  15    9   10 ar
  16    9   29 1
  17   10   11 ar
  18   10   30 1
  19   11   12 ar
  20   11   31 1
  21   12   13 ar
  22   13   32 1
  23   14   15 1
  24   14   33 1
  25   14   34 1
  26   15   16 1
  27   15   35 1
  28   15   36 1
  29   16   17 1
  30   16   37 1
  31   16   38 1
  32   17   39 1
  33   17   40 1
  34   18   19 1
  35   19   20 ar
  36   19   21 ar
  37   20   24 ar
  38   20   41 1
  39   21   22 ar
  40   21   42 1
  41   22   23 ar
  42   22   26 1
  43   23   24 ar
  44   23   25 1
  45   24   27 1
  46   26   43 1
  47   26   44 1
  48   26   45 1
  49   27   46 1
  50   27   47 1
  51   27   48 1

#	End of record

