#	Name: ASD03092608
#	Creating user name:	WinNT
#	Creation time:	15. 06. 2019 20:32

#	Modifying user name:	WinNT
#	Modification time:	15. 06. 2019 20:32

#	Program:	/corina/corina34_cracker 3.40 0067  02.08.2006

@<TRIPOS>MOLECULE
ASD03092608
  46   49    0    0    0
SMALL
NO_CHARGES


@<TRIPOS>ATOM
   1 C1            -1.2482     1.2941    -0.0303 C.3     
   2 C2            -0.7593    -0.1311    -0.0032 C.ar    
   3 N3            -0.7902    -0.8375    -1.1161 N.ar    
   4 C4            -0.3692    -2.0979    -1.1391 C.ar    
   5 N5            -0.4059    -2.8328    -2.3175 N.pl3   
   6 C6            -0.7697    -2.2137    -3.5156 C.ar    
   7 C7            -0.4214    -0.8760    -3.7380 C.ar    
   8 C8            -0.7620    -0.2486    -4.8948 C.ar    
   9 C9            -1.4738    -0.9453    -5.8867 C.ar    
  10 C10           -1.8386    -0.3223    -7.0924 C.ar    
  11 C11           -2.5273    -1.0248    -8.0329 C.ar    
  12 C12           -2.8787    -2.3566    -7.8197 C.ar    
  13 C13           -2.5432    -2.9931    -6.6646 C.ar    
  14 C14           -1.8307    -2.3002    -5.6700 C.ar    
  15 C15           -1.4627    -2.9273    -4.4691 C.ar    
  16 C16            0.1123    -2.6733     0.0432 C.ar    
  17 N17            0.5660    -3.9956     0.0667 N.pl3   
  18 C18            0.1268    -1.8873     1.1999 C.ar    
  19 N19           -0.3104    -0.6287     1.1293 N.ar    
  20 C20            0.6249    -2.4410     2.4809 C.ar    
  21 C21            1.8430    -3.1172     2.5247 C.ar    
  22 C22            2.3020    -3.6309     3.7205 C.ar    
  23 C23            1.5567    -3.4766     4.8756 C.ar    
  24 C24            0.3468    -2.8075     4.8409 C.ar    
  25 C25           -0.1213    -2.2828     3.6507 C.ar    
  26 F26           -1.3003    -1.6239     3.6182 F       
  27 C27            2.0650    -4.0406     6.1774 C.3     
  28 F28            2.8440    -3.0789     6.8297 F       
  29 F29            0.9806    -4.3909     6.9889 F       
  30 F30            2.8422    -5.1754     5.9221 F       
  31 H31           -0.4184     1.9584    -0.2716 H       
  32 H32           -2.0273     1.3967    -0.7858 H       
  33 H33           -1.6527     1.5582     0.9468 H       
  34 H34           -0.1789    -3.7758    -2.3083 H       
  35 H35            0.1252    -0.3350    -2.9798 H       
  36 H36           -0.4864     0.7838    -5.0513 H       
  37 H37           -1.5741     0.7094    -7.2717 H       
  38 H38           -2.8061    -0.5429    -8.9583 H       
  39 H39           -3.4257    -2.8912    -8.5822 H       
  40 H40           -2.8227    -4.0252    -6.5127 H       
  41 H41           -1.7241    -3.9602    -4.2923 H       
  42 H42            0.6558    -4.4923    -0.7617 H       
  43 H43            0.7909    -4.4163     0.9113 H       
  44 H44            2.4265    -3.2392     1.6241 H       
  45 H45            3.2457    -4.1551     3.7545 H       
  46 H46           -0.2308    -2.6906     5.7459 H       
@<TRIPOS>BOND
   1    1    2 1
   2    1   31 1
   3    1   32 1
   4    1   33 1
   5    2   19 ar
   6    2    3 ar
   7    3    4 ar
   8    4    5 1
   9    4   16 ar
  10    5    6 1
  11    5   34 1
  12    6   15 ar
  13    6    7 ar
  14    7    8 ar
  15    7   35 1
  16    8    9 ar
  17    8   36 1
  18    9   14 ar
  19    9   10 ar
  20   10   11 ar
  21   10   37 1
  22   11   12 ar
  23   11   38 1
  24   12   13 ar
  25   12   39 1
  26   13   14 ar
  27   13   40 1
  28   14   15 ar
  29   15   41 1
  30   16   17 1
  31   16   18 ar
  32   17   42 1
  33   17   43 1
  34   18   19 ar
  35   18   20 1
  36   20   25 ar
  37   20   21 ar
  38   21   22 ar
  39   21   44 1
  40   22   23 ar
  41   22   45 1
  42   23   24 ar
  43   23   27 1
  44   24   25 ar
  45   24   46 1
  46   25   26 1
  47   27   28 1
  48   27   29 1
  49   27   30 1

#	End of record

