#	Name: ASD03900043
#	Creating user name:	WinNT
#	Creation time:	15. 06. 2019 20:47

#	Modifying user name:	WinNT
#	Modification time:	15. 06. 2019 20:47

#	Program:	/corina/corina34_cracker 3.40 0067  02.08.2006

@<TRIPOS>MOLECULE
ASD03900043
  50   52    0    0    0
SMALL
NO_CHARGES


@<TRIPOS>ATOM
   1 C1            -0.4684     0.8210    -1.6954 C.ar    
   2 C2            -0.2621    -0.3881    -1.0598 C.ar    
   3 C3             1.0207    -0.7908    -0.7373 C.ar    
   4 C4             2.0999     0.0152    -1.0494 C.ar    
   5 C5             1.8988     1.2251    -1.6850 C.ar    
   6 C6             0.6128     1.6313    -2.0101 C.ar    
   7 C7             1.2428    -2.1103    -0.0439 C.3     
   8 C8             2.7215    -2.3433     0.1306 C.ar    
   9 C9             0.5752    -2.0866     1.3069 C.ar    
  10 C10            0.5107    -3.2399     2.0663 C.ar    
  11 C11            0.0323    -0.9103     1.7890 C.ar    
  12 C12           -0.5802    -0.8886     3.0281 C.ar    
  13 C13           -0.6501    -2.0432     3.7849 C.ar    
  14 C14           -0.1018    -3.2181     3.3054 C.ar    
  15 C15            3.4421    -1.5680     1.0201 C.ar    
  16 C16            3.3540    -3.3360    -0.5949 C.ar    
  17 C17            4.7093    -3.5519    -0.4364 C.ar    
  18 C18            5.4356    -2.7718     0.4516 C.ar    
  19 C19            4.7975    -1.7799     1.1822 C.ar    
  20 O20            0.4124     2.8211    -2.6359 O.3     
  21 O21            6.7691    -2.9823     0.6093 O.3     
  22 C22            0.6451    -3.2373    -0.8886 C.3     
  23 C23            0.8006     2.9084    -3.9182 C.2     
  24 C24            7.5774    -2.5234    -0.3596 C.2     
  25 O25            7.1209    -1.8724    -1.2694 O.2     
  26 O26            1.3747     1.9821    -4.4400 O.2     
  27 C27            0.5202     4.1617    -4.7068 C.3     
  28 Cl28           1.1585     3.9729    -6.3824 Cl      
  29 C29            9.0541    -2.8204    -0.3125 C.3     
  30 Cl30           9.8630    -2.0747    -1.7409 Cl      
  31 H31           -1.4702     1.1331    -1.9512 H       
  32 H32           -1.1035    -1.0191    -0.8144 H       
  33 H33            3.1008    -0.3013    -0.7958 H       
  34 H34            2.7422     1.8543    -1.9286 H       
  35 H35            0.9384    -4.1579     1.6914 H       
  36 H36            0.0869    -0.0082     1.1978 H       
  37 H37           -1.0037     0.0306     3.4051 H       
  38 H38           -1.1282    -2.0262     4.7531 H       
  39 H39           -0.1564    -4.1203     3.8967 H       
  40 H40            2.9450    -0.7957     1.5884 H       
  41 H41            2.7881    -3.9432    -1.2858 H       
  42 H42            5.2028    -4.3276    -1.0030 H       
  43 H43            5.3608    -1.1711     1.8739 H       
  44 H44            1.1280    -3.2544    -1.8656 H       
  45 H45            0.8058    -4.1916    -0.3870 H       
  46 H46           -0.4244    -3.0687    -1.0148 H       
  47 H47           -0.5554     4.3339    -4.7449 H       
  48 H48            1.0072     5.0100    -4.2259 H       
  49 H49            9.4788    -2.4072     0.6023 H       
  50 H50            9.2085    -3.8993    -0.3298 H       
@<TRIPOS>BOND
   1    1    2 ar
   2    1    6 ar
   3    1   31 1
   4    2    3 ar
   5    2   32 1
   6    3    4 ar
   7    3    7 1
   8    4    5 ar
   9    4   33 1
  10    5    6 ar
  11    5   34 1
  12    6   20 1
  13    7    8 1
  14    7    9 1
  15    7   22 1
  16    8   15 ar
  17    8   16 ar
  18    9   10 ar
  19    9   11 ar
  20   10   14 ar
  21   10   35 1
  22   11   12 ar
  23   11   36 1
  24   12   13 ar
  25   12   37 1
  26   13   14 ar
  27   13   38 1
  28   14   39 1
  29   15   19 ar
  30   15   40 1
  31   16   17 ar
  32   16   41 1
  33   17   18 ar
  34   17   42 1
  35   18   19 ar
  36   18   21 1
  37   19   43 1
  38   20   23 1
  39   21   24 1
  40   22   44 1
  41   22   45 1
  42   22   46 1
  43   23   26 2
  44   23   27 1
  45   24   25 2
  46   24   29 1
  47   27   28 1
  48   27   47 1
  49   27   48 1
  50   29   30 1
  51   29   49 1
  52   29   50 1

#	End of record

