#	Name: ASD03930092
#	Creating user name:	WinNT
#	Creation time:	15. 06. 2019 20:47

#	Modifying user name:	WinNT
#	Modification time:	15. 06. 2019 20:47

#	Program:	/corina/corina34_cracker 3.40 0067  02.08.2006

@<TRIPOS>MOLECULE
ASD03930092
  30   32    0    0    0
SMALL
NO_CHARGES


@<TRIPOS>ATOM
   1 C1             2.1971     1.3552    -0.4941 C.ar    
   2 C2             2.2071    -0.0188    -0.3951 C.ar    
   3 C3             1.2055    -0.6762     0.3068 C.ar    
   4 C4             0.1841     0.0539     0.9158 C.ar    
   5 C5             0.1695     1.4319     0.8207 C.ar    
   6 C6             1.1774     2.0920     0.1133 C.ar    
   7 O7             0.9937    -2.0020     0.5451 O.3     
   8 C8             0.0672    -2.0527     1.6459 C.3     
   9 O9            -0.6649    -0.8180     1.5348 O.3     
  10 C10           -0.0613     5.6966    -0.0527 C.3     
  11 N11           -0.0064     4.2244    -0.0774 N.am    
  12 C12           -1.2826     3.5053    -0.2007 C.3     
  13 C13           -2.1369     4.1893    -1.2312 C.2     
  14 C14           -1.8625     5.3499    -1.7348 C.2     
  15 C15           -0.6551     6.1671    -1.3833 C.3     
  16 C16            1.1655     3.5644     0.0091 C.2     
  17 O17            2.2130     4.1817     0.0014 O.2     
  18 H18            2.9802     1.8632    -1.0374 H       
  19 H19            2.9964    -0.5865    -0.8653 H       
  20 H20           -0.6205     1.9981     1.2916 H       
  21 H21           -0.6032    -2.9060     1.5431 H       
  22 H22            0.6020    -2.0967     2.5947 H       
  23 H23           -0.6929     6.0284     0.7713 H       
  24 H24            0.9439     6.1012     0.0661 H       
  25 H25           -1.0929     2.4771    -0.5091 H       
  26 H26           -1.7973     3.5093     0.7601 H       
  27 H27           -3.0292     3.6843    -1.5706 H       
  28 H28           -2.5514     5.7582    -2.4594 H       
  29 H29           -0.9413     7.2155    -1.2995 H       
  30 H30            0.0926     6.0621    -2.1694 H       
@<TRIPOS>BOND
   1    1    2 ar
   2    1    6 ar
   3    1   18 1
   4    2    3 ar
   5    2   19 1
   6    3    4 ar
   7    3    7 1
   8    4    5 ar
   9    4    9 1
  10    5    6 ar
  11    5   20 1
  12    6   16 1
  13    7    8 1
  14    8    9 1
  15    8   21 1
  16    8   22 1
  17   10   11 1
  18   10   15 1
  19   10   23 1
  20   10   24 1
  21   11   12 1
  22   11   16 am
  23   12   13 1
  24   12   25 1
  25   12   26 1
  26   13   14 2
  27   13   27 1
  28   14   15 1
  29   14   28 1
  30   15   29 1
  31   15   30 1
  32   16   17 2

#	End of record

