#	Name: ASD01840228
#	Creating user name:	WinNT
#	Creation time:	15. 06. 2019 19:37

#	Modifying user name:	WinNT
#	Modification time:	15. 06. 2019 19:37

#	Program:	/corina/corina34_cracker 3.40 0067  02.08.2006

@<TRIPOS>MOLECULE
ASD01840228
  52   55    0    0    0
SMALL
NO_CHARGES


@<TRIPOS>ATOM
   1 C1             0.3743     1.3596     1.1336 C.ar    
   2 C2             0.3500    -0.0297     1.0229 C.ar    
   3 N3             1.4073    -0.6948     0.6053 N.ar    
   4 C4             2.5450    -0.0783     0.2697 C.ar    
   5 C5             2.6383     1.3146     0.3566 C.ar    
   6 C6             1.5091     2.0407     0.8044 C.ar    
   7 S7             4.0653    -0.7513    -0.3065 S.3     
   8 C8             4.8093     0.8309    -0.4255 C.2     
   9 C9             3.9444     1.8054    -0.0472 C.2     
  10 C10            1.5599     3.5427     0.9158 C.3     
  11 N11            4.2779     3.1525    -0.0470 N.pl3   
  12 C12            6.1375     1.0617    -0.8583 C.2     
  13 O13            6.5726     2.1981    -0.9095 O.2     
  14 N14            6.9204     0.0237    -1.2138 N.am    
  15 C15            8.2947     0.2625    -1.6616 C.3     
  16 C16            8.9494    -1.0528    -1.9970 C.ar    
  17 C17            8.6954    -1.6619    -3.2139 C.ar    
  18 C18            9.2973    -2.8702    -3.5223 C.ar    
  19 C19           10.1518    -3.4676    -2.6157 C.ar    
  20 C20           10.4058    -2.8583    -1.3985 C.ar    
  21 C21            9.8078    -1.6480    -1.0921 C.ar    
  22 F22            7.8599    -1.0777    -4.1004 F       
  23 F23           11.2410    -3.4427    -0.5118 F       
  24 O24           -0.7785    -0.7063     1.3503 O.3     
  25 C25           -0.7440    -2.1286     1.2166 C.3     
  26 C26           -2.0968    -2.7125     1.6286 C.3     
  27 C27           -2.0604    -4.2125     1.4877 C.ar    
  28 C28           -1.6597    -5.0151     2.5448 C.ar    
  29 C29           -2.4324    -4.8230     0.2997 C.ar    
  30 C30           -2.3862    -6.2011     0.2074 C.ar    
  31 N31           -1.9948    -6.9330     1.2322 N.ar    
  32 C32           -1.6389    -6.3870     2.3786 C.ar    
  33 H33           -0.5009     1.8934     1.4734 H       
  34 H34            1.3489     3.9865    -0.0572 H       
  35 H35            0.8155     3.8789     1.6375 H       
  36 H36            2.5519     3.8492     1.2475 H       
  37 H37            5.2087     3.4217    -0.0004 H       
  38 H38            3.5803     3.8249    -0.0934 H       
  39 H39            6.5739    -0.8813    -1.1730 H       
  40 H40            8.2831     0.8987    -2.5466 H       
  41 H41            8.8553     0.7552    -0.8672 H       
  42 H42            9.0986    -3.3458    -4.4713 H       
  43 H43           10.6213    -4.4100    -2.8562 H       
  44 H44           10.0062    -1.1726    -0.1429 H       
  45 H45           -0.5356    -2.3911     0.1795 H       
  46 H46            0.0377    -2.5350     1.8584 H       
  47 H47           -2.3053    -2.4500     2.6658 H       
  48 H48           -2.8786    -2.3062     0.9868 H       
  49 H49           -1.3671    -4.5739     3.4861 H       
  50 H50           -2.7545    -4.2290    -0.5429 H       
  51 H51           -2.6743    -6.6843    -0.7145 H       
  52 H52           -1.3239    -7.0189     3.1958 H       
@<TRIPOS>BOND
   1    1    2 ar
   2    1    6 ar
   3    1   33 1
   4    2    3 ar
   5    2   24 1
   6    3    4 ar
   7    4    5 ar
   8    4    7 1
   9    5    6 ar
  10    5    9 1
  11    6   10 1
  12    7    8 1
  13    8    9 2
  14    8   12 1
  15    9   11 1
  16   10   34 1
  17   10   35 1
  18   10   36 1
  19   11   37 1
  20   11   38 1
  21   12   13 2
  22   12   14 am
  23   14   15 1
  24   14   39 1
  25   15   16 1
  26   15   40 1
  27   15   41 1
  28   16   17 ar
  29   16   21 ar
  30   17   18 ar
  31   17   22 1
  32   18   19 ar
  33   18   42 1
  34   19   20 ar
  35   19   43 1
  36   20   21 ar
  37   20   23 1
  38   21   44 1
  39   24   25 1
  40   25   26 1
  41   25   45 1
  42   25   46 1
  43   26   27 1
  44   26   47 1
  45   26   48 1
  46   27   28 ar
  47   27   29 ar
  48   28   32 ar
  49   28   49 1
  50   29   30 ar
  51   29   50 1
  52   30   31 ar
  53   30   51 1
  54   31   32 ar
  55   32   52 1

#	End of record

