#	Name: ASD04910154
#	Creating user name:	WinNT
#	Creation time:	15. 06. 2019 20:55

#	Modifying user name:	WinNT
#	Modification time:	15. 06. 2019 20:55

#	Program:	/corina/corina34_cracker 3.40 0067  02.08.2006

@<TRIPOS>MOLECULE
ASD04910154
  21   21    0    0    0
SMALL
NO_CHARGES


@<TRIPOS>ATOM
   1 C1            -0.0156     1.3008     0.0092 C.2     
   2 N2             0.0021    -0.0041     0.0020 N.2     
   3 C3             1.2741    -0.4291    -0.0124 C.2     
   4 C4             2.0751     0.6534    -0.0142 C.2     
   5 N5             1.2575     1.7511    -0.0005 N.pl3   
   6 C6             1.7275    -1.8663    -0.0240 C.3     
   7 C7             2.2499    -2.2474     1.3626 C.3     
   8 C8             0.5488    -2.7700    -0.3911 C.3     
   9 C9             2.8442    -2.0404    -1.0553 C.3     
  10 H10           -0.9017     1.9182     0.0169 H       
  11 H11            3.1551     0.6552    -0.0242 H       
  12 H12            1.5398     2.6791     0.0017 H       
  13 H13            1.4543    -2.1234     2.0973 H       
  14 H14            2.5778    -3.2869     1.3542 H       
  15 H15            3.0897    -1.6036     1.6242 H       
  16 H16            0.1767    -2.4984    -1.3790 H       
  17 H17            0.8767    -3.8094    -0.3995 H       
  18 H18           -0.2468    -2.6459     0.3436 H       
  19 H19            3.6840    -1.3966    -0.7938 H       
  20 H20            3.1722    -3.0799    -1.0637 H       
  21 H21            2.4721    -1.7689    -2.0432 H       
@<TRIPOS>BOND
   1    1    2 2
   2    1    5 1
   3    1   10 1
   4    2    3 1
   5    3    4 2
   6    3    6 1
   7    4    5 1
   8    4   11 1
   9    5   12 1
  10    6    7 1
  11    6    9 1
  12    6    8 1
  13    7   13 1
  14    7   14 1
  15    7   15 1
  16    8   16 1
  17    8   17 1
  18    8   18 1
  19    9   19 1
  20    9   20 1
  21    9   21 1

#	End of record

