#	Name: ASD01810867
#	Creating user name:	WinNT
#	Creation time:	15. 06. 2019 19:25

#	Modifying user name:	WinNT
#	Modification time:	15. 06. 2019 19:25

#	Program:	/corina/corina34_cracker 3.40 0067  02.08.2006

@<TRIPOS>MOLECULE
ASD01810867
  50   54    0    0    0
SMALL
NO_CHARGES


@<TRIPOS>ATOM
   1 C1            -0.0178     1.4608     0.0101 C.3     
   2 C2            -1.0281    -4.3064     1.9053 C.ar    
   3 C3            -1.0789    -2.9545     1.9699 C.ar    
   4 C4            -0.5179    -2.1555     0.9615 C.ar    
   5 C5             0.1143    -2.7461    -0.1478 C.ar    
   6 C6             0.1720    -4.2029    -0.2241 C.ar    
   7 C7             0.7843    -4.8572    -1.2978 C.ar    
   8 C8             0.8152    -6.2209    -1.3291 C.ar    
   9 C9             0.2447    -6.9701    -0.3051 C.ar    
  10 C10           -0.3596    -6.3632     0.7553 C.ar    
  11 C11           -0.4090    -4.9623     0.8207 C.ar    
  12 C12           -1.6385    -5.1241     3.0143 C.3     
  13 C13           -0.3085    -4.6546     5.0928 C.ar    
  14 C14           -0.5725    -5.4872     4.0158 C.ar    
  15 C15            0.1535    -6.6542     3.8723 C.ar    
  16 N16            1.0877    -6.9795     4.7444 N.ar    
  17 C17            0.6799    -5.0287     5.9896 C.ar    
  18 C18            1.3662    -6.2118     5.7812 C.ar    
  19 C19           -0.5665    -0.6890     1.0214 C.2     
  20 N20            0.0021    -0.0041     0.0020 N.am    
  21 C21            0.5898    -0.6636    -1.0273 C.2     
  22 N22            0.6445    -1.9615    -1.1010 N.2     
  23 O23           -1.0983    -0.1114     1.9523 O.2     
  24 C24            1.4183     1.9950    -0.0008 C.3     
  25 C25            1.3927     3.5185    -0.1346 C.3     
  26 C26            0.7765     3.9108    -1.4785 C.3     
  27 C27           -0.6837     3.4486    -1.5233 C.3     
  28 C28           -0.7282     1.9661    -1.2261 C.2     
  29 Cl29           2.6070    -6.6922     6.8962 Cl      
  30 O30           -1.3155     1.2053    -1.9573 O.2     
  31 H31           -0.5335     1.8150     0.9027 H       
  32 H32           -1.5604    -2.4822     2.8134 H       
  33 H33            1.2301    -4.2858    -2.0985 H       
  34 H34            1.2880    -6.7249    -2.1591 H       
  35 H35            0.2808    -8.0485    -0.3512 H       
  36 H36           -0.7981    -6.9583     1.5427 H       
  37 H37           -2.4176    -4.5430     3.5077 H       
  38 H38           -2.0717    -6.0339     2.5988 H       
  39 H39           -0.8574    -3.7343     5.2275 H       
  40 H40           -0.0467    -7.3078     3.0362 H       
  41 H41            0.9121    -4.4041     6.8395 H       
  42 H42            1.0331    -0.0840    -1.8235 H       
  43 H43            1.9155     1.7201     0.9295 H       
  44 H44            1.9598     1.5651    -0.8434 H       
  45 H45            0.7983     3.9434     0.6743 H       
  46 H46            2.4104     3.9045    -0.0762 H       
  47 H47            0.8189     4.9937    -1.5956 H       
  48 H48            1.3332     3.4355    -2.2862 H       
  49 H49           -1.2621     3.9896    -0.7743 H       
  50 H50           -1.0968     3.6359    -2.5144 H       
@<TRIPOS>BOND
   1    1   20 1
   2    1   24 1
   3    1   28 1
   4    1   31 1
   5    2    3 ar
   6    2   11 ar
   7    2   12 1
   8    3    4 ar
   9    3   32 1
  10    4    5 ar
  11    4   19 1
  12    5    6 ar
  13    5   22 1
  14    6    7 ar
  15    6   11 ar
  16    7    8 ar
  17    7   33 1
  18    8    9 ar
  19    8   34 1
  20    9   10 ar
  21    9   35 1
  22   10   11 ar
  23   10   36 1
  24   12   14 1
  25   12   37 1
  26   12   38 1
  27   13   14 ar
  28   13   17 ar
  29   13   39 1
  30   14   15 ar
  31   15   16 ar
  32   15   40 1
  33   16   18 ar
  34   17   18 ar
  35   17   41 1
  36   18   29 1
  37   19   20 am
  38   19   23 2
  39   20   21 1
  40   21   22 2
  41   21   42 1
  42   24   25 1
  43   24   43 1
  44   24   44 1
  45   25   26 1
  46   25   45 1
  47   25   46 1
  48   26   27 1
  49   26   47 1
  50   26   48 1
  51   27   28 1
  52   27   49 1
  53   27   50 1
  54   28   30 2

#	End of record

