#	Name: ASD02198471
#	Creating user name:	WinNT
#	Creation time:	15. 06. 2019 20:19

#	Modifying user name:	WinNT
#	Modification time:	15. 06. 2019 20:19

#	Program:	/corina/corina34_cracker 3.40 0067  02.08.2006

@<TRIPOS>MOLECULE
ASD02198471
  41   44    0    0    0
SMALL
NO_CHARGES


@<TRIPOS>ATOM
   1 C1             0.2623     1.0548     0.4287 C.2     
   2 C2             0.2855    -0.2855     0.6377 C.2     
   3 N3             1.4576    -0.9568     0.7034 N.pl3   
   4 N4             2.6009    -0.3913     0.5759 N.2     
   5 C5             2.7216     0.9022     0.3689 C.2     
   6 C6             1.5022     1.7222     0.2820 C.2     
   7 C7             1.4206    -2.3379     0.9218 C.ar    
   8 C8             0.1843    -4.3269     1.4382 C.ar    
   9 C9             1.3475    -5.0698     1.3548 C.ar    
  10 C10            2.5483    -4.4497     1.0604 C.ar    
  11 C11            2.5883    -3.0867     0.8438 C.ar    
  12 C12            4.0556     1.5202     0.2269 C.2     
  13 N13            5.1265     0.9956    -0.4406 N.pl3   
  14 N14            6.1864     1.9039    -0.3273 N.2     
  15 C15            5.7851     2.9337     0.3747 C.2     
  16 C16            4.4528     2.7367     0.7372 C.2     
  17 C17            5.1585    -0.2312    -1.1164 C.ar    
  18 C18            6.1875    -1.1335    -0.8736 C.ar    
  19 O19            1.5577     2.9277     0.0907 O.2     
  20 C20            0.2172    -2.9630     1.2227 C.ar    
  21 C21            4.1596    -0.5507    -2.0257 C.ar    
  22 C22            4.1936    -1.7614    -2.6903 C.ar    
  23 C23            5.2211    -2.6550    -2.4509 C.ar    
  24 C24            6.2155    -2.3428    -1.5418 C.ar    
  25 Cl25           7.4361    -0.7416     0.2670 Cl      
  26 C26           -1.1216    -5.0067     1.7597 C.3     
  27 F27           -0.9040    -6.3782     1.9294 F       
  28 F28           -1.6496    -4.4690     2.9383 F       
  29 F29           -2.0237    -4.8042     0.7096 F       
  30 H30           -0.6716     1.5942     0.3716 H       
  31 H31           -0.6440    -0.8232     0.7535 H       
  32 H32            1.3183    -6.1367     1.5201 H       
  33 H33            3.4551    -5.0329     0.9967 H       
  34 H34            3.5263    -2.6032     0.6137 H       
  35 H35            6.3854     3.7952     0.6277 H       
  36 H36            3.8442     3.4127     1.3196 H       
  37 H37           -0.6916    -2.3832     1.2884 H       
  38 H38            3.3563     0.1464    -2.2133 H       
  39 H39            3.4163    -2.0104    -3.3975 H       
  40 H40            5.2448    -3.6009    -2.9716 H       
  41 H41            7.0167    -3.0430    -1.3570 H       
@<TRIPOS>BOND
   1    1    2 2
   2    1    6 1
   3    1   30 1
   4    2    3 1
   5    2   31 1
   6    3    4 1
   7    3    7 1
   8    4    5 2
   9    5    6 1
  10    5   12 1
  11    6   19 2
  12    7   20 ar
  13    7   11 ar
  14    8    9 ar
  15    8   26 1
  16    8   20 ar
  17    9   10 ar
  18    9   32 1
  19   10   11 ar
  20   10   33 1
  21   11   34 1
  22   12   13 1
  23   12   16 2
  24   13   14 1
  25   13   17 1
  26   14   15 2
  27   15   16 1
  28   15   35 1
  29   16   36 1
  30   17   21 ar
  31   17   18 ar
  32   18   25 1
  33   18   24 ar
  34   20   37 1
  35   21   22 ar
  36   21   38 1
  37   22   23 ar
  38   22   39 1
  39   23   24 ar
  40   23   40 1
  41   24   41 1
  42   26   27 1
  43   26   28 1
  44   26   29 1

#	End of record

