#	Name: ASD01810974
#	Creating user name:	WinNT
#	Creation time:	15. 06. 2019 19:25

#	Modifying user name:	WinNT
#	Modification time:	15. 06. 2019 19:25

#	Program:	/corina/corina34_cracker 3.40 0067  02.08.2006

@<TRIPOS>MOLECULE
ASD01810974
  65   69    0    0    0
SMALL
NO_CHARGES


@<TRIPOS>ATOM
   1 C1            -0.0173     1.2602     0.0302 C.ar    
   2 C2            -0.0235    -0.1325    -0.0770 C.ar    
   3 C3            -1.3044    -0.8711    -0.0632 C.2     
   4 N4            -2.2703    -0.5288     0.8122 N.am    
   5 O5            -1.4862    -1.7870    -0.8414 O.2     
   6 C6            -2.0255     0.4994     1.8328 C.3     
   7 C7             1.1799    -0.8240    -0.1973 C.ar    
   8 C8             2.3821    -0.1204    -0.2099 C.ar    
   9 C9             2.3741     1.2715    -0.1020 C.ar    
  10 C10            1.1777     1.9511     0.0170 C.ar    
  11 C11            3.6647    -0.8466    -0.3369 C.2     
  12 C12           -2.3682    -0.0802     3.2088 C.3     
  13 C13           -3.8010    -0.6177     3.1890 C.3     
  14 C14           -3.9135    -1.7372     2.1516 C.3     
  15 C15           -3.5901    -1.1723     0.7601 C.3     
  16 C16           -4.1534    -1.1580     4.5510 C.ar    
  17 C17           -5.2156    -0.6164     5.2530 C.ar    
  18 C18           -5.5439    -1.1064     6.5000 C.ar    
  19 C19           -4.8015    -2.1515     7.0534 C.ar    
  20 C20           -3.7308    -2.6934     6.3395 C.ar    
  21 C21           -3.4168    -2.1972     5.0912 C.ar    
  22 C22            3.6738     2.0341    -0.1154 C.3     
  23 N23            4.8514    -0.2948    -0.4787 N.2     
  24 C24           -5.1363    -2.6650     8.3476 C.1     
  25 N25           -5.4019    -3.0723     9.3743 N.1     
  26 C26            5.7749    -1.2538    -0.5625 C.2     
  27 C27            5.1500    -2.4497    -0.4659 C.2     
  28 N28            3.8196    -2.2044    -0.3209 N.pl3   
  29 C29            7.2638    -1.0844    -0.7394 C.3     
  30 C30            7.9619    -2.3891    -0.3367 C.3     
  31 N31            7.2455    -3.5253    -0.9351 N.am    
  32 C32            5.8582    -3.7810    -0.5063 C.3     
  33 S33            7.9779    -4.4926    -2.0621 S.o2    
  34 O34            8.9585    -3.6549    -2.6587 O.2     
  35 C35            8.7678    -5.8037    -1.0886 C.3     
  36 O36            6.9009    -5.0184    -2.8256 O.2     
  37 H37           -0.9497     1.7980     0.1191 H       
  38 H38           -0.9761     0.7932     1.8111 H       
  39 H39           -2.6543     1.3675     1.6351 H       
  40 H40            1.1808    -1.9008    -0.2802 H       
  41 H41            1.1771     3.0279     0.0999 H       
  42 H42           -1.6787    -0.8911     3.4439 H       
  43 H43           -2.2831     0.7010     3.9641 H       
  44 H44           -4.4876     0.1882     2.9295 H       
  45 H45           -3.2095    -2.5324     2.3968 H       
  46 H46           -4.9282    -2.1353     2.1546 H       
  47 H47           -4.3479    -0.4417     0.4772 H       
  48 H48           -3.5715    -1.9831     0.0319 H       
  49 H49           -5.7887     0.1922     4.8239 H       
  50 H50           -6.3730    -0.6825     7.0470 H       
  51 H51           -3.1523    -3.5016     6.7619 H       
  52 H52           -2.5890    -2.6154     4.5378 H       
  53 H53            3.9902     2.1946    -1.1461 H       
  54 H54            3.5352     2.9970     0.3762 H       
  55 H55            4.4361     1.4623     0.4138 H       
  56 H56            3.1159    -2.8659    -0.2304 H       
  57 H57            7.4843    -0.8591    -1.7828 H       
  58 H58            7.6166    -0.2707    -0.1056 H       
  59 H59            8.9909    -2.3774    -0.6960 H       
  60 H60            7.9555    -2.4855     0.7490 H       
  61 H61            5.8538    -4.2338     0.4852 H       
  62 H62            5.3654    -4.4421    -1.2192 H       
  63 H63            8.0088    -6.3426    -0.5214 H       
  64 H64            9.2800    -6.4948    -1.7579 H       
  65 H65            9.4891    -5.3615    -0.4014 H       
@<TRIPOS>BOND
   1    1    2 ar
   2    1   10 ar
   3    1   37 1
   4    2    3 1
   5    2    7 ar
   6    3    4 am
   7    3    5 2
   8    4    6 1
   9    4   15 1
  10    6   12 1
  11    6   38 1
  12    6   39 1
  13    7    8 ar
  14    7   40 1
  15    8    9 ar
  16    8   11 1
  17    9   10 ar
  18    9   22 1
  19   10   41 1
  20   11   23 2
  21   11   28 1
  22   12   13 1
  23   12   42 1
  24   12   43 1
  25   13   14 1
  26   13   16 1
  27   13   44 1
  28   14   15 1
  29   14   45 1
  30   14   46 1
  31   15   47 1
  32   15   48 1
  33   16   17 ar
  34   16   21 ar
  35   17   18 ar
  36   17   49 1
  37   18   19 ar
  38   18   50 1
  39   19   20 ar
  40   19   24 1
  41   20   21 ar
  42   20   51 1
  43   21   52 1
  44   22   53 1
  45   22   54 1
  46   22   55 1
  47   23   26 1
  48   24   25 3
  49   26   27 2
  50   26   29 1
  51   27   28 1
  52   27   32 1
  53   28   56 1
  54   29   30 1
  55   29   57 1
  56   29   58 1
  57   30   31 1
  58   30   59 1
  59   30   60 1
  60   31   32 1
  61   31   33 am
  62   32   61 1
  63   32   62 1
  64   33   34 2
  65   33   35 1
  66   33   36 2
  67   35   63 1
  68   35   64 1
  69   35   65 1

#	End of record

