#	Name: ASD00560008
#	Creating user name:	WinNT
#	Creation time:	15. 06. 2019 18:36

#	Modifying user name:	WinNT
#	Modification time:	15. 06. 2019 18:36

#	Program:	/corina/corina34_cracker 3.40 0067  02.08.2006

@<TRIPOS>MOLECULE
ASD00560008
  47   50    0    0    0
SMALL
NO_CHARGES


@<TRIPOS>ATOM
   1 C1            -0.6451     1.3474     0.3587 C.2     
   2 N2            -0.4863     0.0442     0.2955 N.2     
   3 C3            -1.5395    -0.7787     0.2324 C.2     
   4 C4            -2.8347    -0.2485     0.2332 C.2     
   5 C5            -2.9914     1.1558     0.3012 C.2     
   6 N6            -1.8807     1.9228     0.3686 N.am    
   7 O7            -4.1008     1.6612     0.3042 O.2     
   8 N8             0.4649     2.1517     0.4220 N.pl3   
   9 N9            -1.6857    -2.1375     0.1610 N.pl3   
  10 C10           -3.0236    -2.4045     0.1208 C.2     
  11 N11           -3.6967    -1.2920     0.1634 N.2     
  12 C12            0.0911    -4.3240    -1.8775 C.3     
  13 C13            0.2917    -2.9507     1.3605 C.3     
  14 C14            1.0180    -5.5123     0.0995 C.3     
  15 C15           -0.8339    -6.5911    -1.1152 C.3     
  16 O16           -1.0360    -4.1852    -2.7615 O.3     
  17 O17            1.5962    -2.6825    -0.8326 O.3     
  18 C18            1.3663    -4.7445    -2.6110 C.3     
  19 C19           -0.6039    -3.1250     0.1324 C.3     
  20 C20           -0.2581    -5.2584    -0.7056 C.3     
  21 C21            0.2300    -2.9521    -1.1535 C.3     
  22 C22           -0.3493    -1.8341    -2.0227 C.3     
  23 O23           -1.1549    -4.4920     0.1082 O.3     
  24 O24           -1.9983    -6.4278    -1.9205 O.3     
  25 P25           -1.8790    -5.4844    -3.2394 P.3     
  26 O26           -3.2247    -5.0799    -3.7040 O.2     
  27 O27           -1.0921    -6.2599    -4.4105 O.3     
  28 H28           -1.9631     2.8882     0.4161 H       
  29 H29            1.3509     1.7566     0.4198 H       
  30 H30            0.3637     3.1152     0.4690 H       
  31 H31           -3.4583    -3.3914     0.0620 H       
  32 H32            0.8618    -2.0265     1.2662 H       
  33 H33           -0.3261    -2.9066     2.2575 H       
  34 H34            0.9775    -3.7948     1.4329 H       
  35 H35            1.5727    -4.5800     0.2047 H       
  36 H36            0.7551    -5.8921     1.0868 H       
  37 H37            1.6351    -6.2458    -0.4194 H       
  38 H38           -0.0927    -7.1647    -1.6717 H       
  39 H39           -1.0997    -7.1366    -0.2098 H       
  40 H40            1.7348    -1.8398    -0.3791 H       
  41 H41            1.6260    -3.9878    -3.3512 H       
  42 H42            2.1811    -4.8462    -1.8941 H       
  43 H43            1.2003    -5.6992    -3.1101 H       
  44 H44           -0.2132    -0.8762    -1.5207 H       
  45 H45            0.1652    -1.8172    -2.9834 H       
  46 H46           -1.4125    -2.0125    -2.1830 H       
  47 H47           -1.5491    -7.0471    -4.7370 H       
@<TRIPOS>BOND
   1    1    2 2
   2    1    8 1
   3    1    6 1
   4    2    3 1
   5    3    4 2
   6    3    9 1
   7    4    5 1
   8    4   11 1
   9    5    6 am
  10    5    7 2
  11    6   28 1
  12    8   29 1
  13    8   30 1
  14    9   10 1
  15    9   19 1
  16   10   11 2
  17   10   31 1
  18   12   16 1
  19   12   18 1
  20   12   20 1
  21   12   21 1
  22   13   19 1
  23   13   32 1
  24   13   33 1
  25   13   34 1
  26   14   20 1
  27   14   35 1
  28   14   36 1
  29   14   37 1
  30   15   24 1
  31   15   20 1
  32   15   38 1
  33   15   39 1
  34   16   25 1
  35   17   21 1
  36   17   40 1
  37   18   41 1
  38   18   42 1
  39   18   43 1
  40   19   21 1
  41   19   23 1
  42   20   23 1
  43   21   22 1
  44   22   44 1
  45   22   45 1
  46   22   46 1
  47   24   25 1
  48   25   26 2
  49   25   27 1
  50   27   47 1

#	End of record

