#	Name: ASD09116521
#	Creating user name:	WinNT
#	Creation time:	15. 06. 2019 21:21

#	Modifying user name:	WinNT
#	Modification time:	15. 06. 2019 21:21

#	Program:	/corina/corina34_cracker 3.40 0067  02.08.2006

@<TRIPOS>MOLECULE
ASD09116521
  71   77    0    0    0
SMALL
NO_CHARGES


@<TRIPOS>ATOM
   1 N1            -0.0336     1.4254     0.1797 N.2     
   2 N2            -0.0281     0.0300     0.3366 N.pl3   
   3 C3             1.2193     1.8119     0.1472 C.2     
   4 N4             2.0098     0.7397     0.2747 N.2     
   5 C5             1.2720    -0.3436     0.3900 C.2     
   6 N6             1.7413    -1.6347     0.5398 N.pl3   
   7 C7            -1.1427    -0.8064     0.4212 C.ar    
   8 N8             1.6572     3.1285     0.0026 N.pl3   
   9 C9             3.0195     3.4261     0.0968 C.ar    
  10 C10            3.5515     4.5193    -0.5760 C.ar    
  11 C11            3.8657     2.6344     0.8719 C.ar    
  12 C12            5.2060     2.9791     0.9271 C.ar    
  13 C13            5.6617     4.0676     0.2298 C.ar    
  14 N14            4.8353     4.8050    -0.4925 N.ar    
  15 N15           -1.0414    -2.0818     0.0781 N.ar    
  16 N16           -2.0387    -2.8913     0.1285 N.ar    
  17 C17           -3.2357    -2.4934     0.5287 C.ar    
  18 C18           -3.4322    -1.1692     0.9308 C.ar    
  19 C19           -2.3637    -0.2996     0.8734 C.ar    
  20 C20           -4.3991    -3.4104     0.5362 C.ar    
  21 C21           -5.5919    -2.9915    -0.0552 C.ar    
  22 C22           -5.6487    -1.6489    -0.7310 C.3     
  23 C23           -5.7507    -0.5167     0.2875 C.3     
  24 C24           -4.7762    -0.7377     1.4412 C.3     
  25 C25           -4.3178    -4.6682     1.1233 C.ar    
  26 C26           -5.4277    -5.4906     1.1341 C.ar    
  27 C27           -6.6139    -5.0636     0.5654 C.ar    
  28 C28           -6.6965    -3.8156    -0.0277 C.ar    
  29 C29            6.1590     2.1516     1.7626 C.3     
  30 C30            7.0750     1.3674     0.8191 C.3     
  31 C31            8.2683     2.2057     0.4048 C.3     
  32 C32            7.9274     3.3852    -0.4842 C.3     
  33 C33            7.1300     4.4402     0.2853 C.3     
  34 N34            9.2184     1.3427    -0.3098 N.3     
  35 C35           10.4049     2.1053    -0.7395 C.3     
  36 C36           11.6412     1.4047    -0.1378 C.3     
  37 C37           11.1320    -0.0367     0.1264 C.3     
  38 C38            9.6634     0.2222     0.5458 C.3     
  39 H39            2.6961    -1.8036     0.5671 H       
  40 H40            1.1159    -2.3722     0.6175 H       
  41 H41            1.0162     3.8374    -0.1633 H       
  42 H42            2.9046     5.1426    -1.1755 H       
  43 H43            3.4878     1.7792     1.4126 H       
  44 H44           -2.4686     0.7364     1.1600 H       
  45 H45           -4.7468    -1.5116    -1.3276 H       
  46 H46           -6.5178    -1.6169    -1.3881 H       
  47 H47           -5.5183     0.4288    -0.2025 H       
  48 H48           -6.7672    -0.4768     0.6790 H       
  49 H49           -5.1726    -1.5079     2.1028 H       
  50 H50           -4.6658     0.1916     2.0001 H       
  51 H51           -3.3916    -5.0006     1.5683 H       
  52 H52           -5.3690    -6.4692     1.5873 H       
  53 H53           -7.4808    -5.7074     0.5843 H       
  54 H54           -7.6261    -3.4877    -0.4689 H       
  55 H55            6.7583     2.8084     2.3931 H       
  56 H56            5.5933     1.4579     2.3845 H       
  57 H57            7.4268     0.4688     1.3258 H       
  58 H58            6.5129     1.0802    -0.0696 H       
  59 H59            8.7565     2.5805     1.3044 H       
  60 H60            8.8499     3.8331    -0.8539 H       
  61 H61            7.3358     3.0362    -1.3306 H       
  62 H62            7.2774     5.4177    -0.1737 H       
  63 H63            7.4624     4.4657     1.3231 H       
  64 H64           10.4716     2.1055    -1.8274 H       
  65 H65           10.3419     3.1287    -0.3695 H       
  66 H66           12.4653     1.3976    -0.8511 H       
  67 H67           11.9407     1.8845     0.7939 H       
  68 H68           11.1786    -0.6397    -0.7804 H       
  69 H69           11.6920    -0.5065     0.9350 H       
  70 H70            9.6133     0.5046     1.5974 H       
  71 H71            9.0542    -0.6623     0.3601 H       
@<TRIPOS>BOND
   1    1    2 1
   2    1    3 2
   3    2    7 1
   4    2    5 1
   5    3    4 1
   6    3    8 1
   7    4    5 2
   8    5    6 1
   9    6   39 1
  10    6   40 1
  11    7   15 ar
  12    7   19 ar
  13    8    9 1
  14    8   41 1
  15    9   10 ar
  16    9   11 ar
  17   10   14 ar
  18   10   42 1
  19   11   12 ar
  20   11   43 1
  21   12   13 ar
  22   12   29 1
  23   13   14 ar
  24   13   33 1
  25   15   16 ar
  26   16   17 ar
  27   17   18 ar
  28   17   20 1
  29   18   19 ar
  30   18   24 1
  31   19   44 1
  32   20   21 ar
  33   20   25 ar
  34   21   22 1
  35   21   28 ar
  36   22   23 1
  37   22   45 1
  38   22   46 1
  39   23   24 1
  40   23   47 1
  41   23   48 1
  42   24   49 1
  43   24   50 1
  44   25   26 ar
  45   25   51 1
  46   26   27 ar
  47   26   52 1
  48   27   28 ar
  49   27   53 1
  50   28   54 1
  51   29   30 1
  52   29   55 1
  53   29   56 1
  54   30   31 1
  55   30   57 1
  56   30   58 1
  57   31   32 1
  58   31   34 1
  59   31   59 1
  60   32   33 1
  61   32   60 1
  62   32   61 1
  63   33   62 1
  64   33   63 1
  65   34   35 1
  66   34   38 1
  67   35   36 1
  68   35   64 1
  69   35   65 1
  70   36   37 1
  71   36   66 1
  72   36   67 1
  73   37   38 1
  74   37   68 1
  75   37   69 1
  76   38   70 1
  77   38   71 1

#	End of record

