#	Name: ASD01912562
#	Creating user name:	WinNT
#	Creation time:	15. 06. 2019 19:59

#	Modifying user name:	WinNT
#	Modification time:	15. 06. 2019 19:59

#	Program:	/corina/corina34_cracker 3.40 0067  02.08.2006

@<TRIPOS>MOLECULE
ASD01912562
  38   40    0    0    0
SMALL
NO_CHARGES


@<TRIPOS>ATOM
   1 C1             0.0552     1.4546     0.2936 C.2     
   2 C2             0.1626     0.0553     0.5784 C.1     
   3 C3             0.2506    -1.0919     0.8118 C.1     
   4 C4             0.3580    -2.4912     1.0966 C.ar    
   5 C5            -0.5761    -3.1119     1.9320 C.ar    
   6 C6             1.3935    -3.2445     0.5361 C.ar    
   7 C7             1.4899    -4.5929     0.8151 C.ar    
   8 C8             0.5638    -5.1988     1.6477 C.ar    
   9 C9            -0.4669    -4.4597     2.2015 C.ar    
  10 N10            0.8711     2.1359    -0.4721 N.2     
  11 C11            0.6270     3.4065    -0.6247 C.2     
  12 C12           -0.4699     3.8765     0.0460 C.2     
  13 S13           -1.1985     2.5256     0.9124 S.3     
  14 C14           -0.9559     5.2586     0.0402 C.2     
  15 O15           -0.1662     6.1818     0.1148 O.2     
  16 N16           -2.2775     5.5079    -0.0476 N.am    
  17 C17           -2.7904     6.8794     0.0735 C.3     
  18 C18           -3.8689     6.9082     1.1610 C.3     
  19 C19           -4.9396     5.8629     0.8399 C.3     
  20 C20           -4.3064     4.4697     0.8244 C.3     
  21 C21           -3.2323     4.4139    -0.2725 C.3     
  22 Cl22           2.7745    -5.5315     0.1203 Cl      
  23 O23           -5.9639     5.9092     1.8352 O.3     
  24 H24           -1.3809    -2.5367     2.3654 H       
  25 H25            2.1160    -2.7729    -0.1135 H       
  26 H26            0.6437    -6.2542     1.8623 H       
  27 H27           -1.1852    -4.9390     2.8502 H       
  28 H28            1.2469     4.0445    -1.2372 H       
  29 H29           -1.9768     7.5508     0.3479 H       
  30 H30           -3.2214     7.1936    -0.8770 H       
  31 H31           -3.4177     6.6818     2.1271 H       
  32 H32           -4.3251     7.8976     1.1949 H       
  33 H33           -5.3732     6.0755    -0.1373 H       
  34 H34           -3.8510     4.2663     1.7936 H       
  35 H35           -5.0738     3.7235     0.6187 H       
  36 H36           -3.7017     4.5266    -1.2497 H       
  37 H37           -2.7096     3.4586    -0.2239 H       
  38 H38           -6.6776     5.2719     1.6951 H       
@<TRIPOS>BOND
   1    1    2 1
   2    1   10 2
   3    1   13 1
   4    2    3 3
   5    3    4 1
   6    4    5 ar
   7    4    6 ar
   8    5    9 ar
   9    5   24 1
  10    6    7 ar
  11    6   25 1
  12    7    8 ar
  13    7   22 1
  14    8    9 ar
  15    8   26 1
  16    9   27 1
  17   10   11 1
  18   11   12 2
  19   11   28 1
  20   12   13 1
  21   12   14 1
  22   14   15 2
  23   14   16 am
  24   16   17 1
  25   16   21 1
  26   17   18 1
  27   17   29 1
  28   17   30 1
  29   18   19 1
  30   18   31 1
  31   18   32 1
  32   19   20 1
  33   19   23 1
  34   19   33 1
  35   20   21 1
  36   20   34 1
  37   20   35 1
  38   21   36 1
  39   21   37 1
  40   23   38 1

#	End of record

