#	Name: ASD02398039
#	Creating user name:	WinNT
#	Creation time:	15. 06. 2019 20:20

#	Modifying user name:	WinNT
#	Modification time:	15. 06. 2019 20:20

#	Program:	/corina/corina34_cracker 3.40 0067  02.08.2006

@<TRIPOS>MOLECULE
ASD02398039
  66   70    0    0    0
SMALL
NO_CHARGES


@<TRIPOS>ATOM
   1 C1            -1.0019    -0.6425     1.1044 C.ar    
   2 C2            -0.0291    -0.2786     0.1596 C.ar    
   3 C3            -0.3293     0.6819    -0.8022 C.ar    
   4 C4            -1.5777     1.2710    -0.8232 C.ar    
   5 C5            -2.5366     0.9126     0.1085 C.ar    
   6 C6            -2.2575    -0.0429     1.0653 C.ar    
   7 C7            -1.8982     2.3104    -1.8662 C.3     
   8 C8            -2.3620     1.6295    -3.1281 C.2     
   9 O9            -2.5178     0.4315    -3.1459 O.2     
  10 O10           -2.6019     2.3539    -4.2324 O.3     
  11 C11            1.3102    -0.9134     0.1864 C.ar    
  12 C12            2.2012    -0.6241     1.2190 C.ar    
  13 C13            1.6814    -1.8062    -0.8176 C.ar    
  14 C14            2.9298    -2.3942    -0.7875 C.ar    
  15 C15            3.8115    -2.0994     0.2366 C.ar    
  16 C16            3.4465    -1.2180     1.2387 C.ar    
  17 C17            1.8052     0.3357     2.3112 C.3     
  18 N18            2.9020     0.4589     3.2745 N.am    
  19 C19            3.9535     1.2813     3.1573 C.2     
  20 O20            4.8174     1.2036     4.1757 O.3     
  21 C21            4.3449     0.2182     5.1394 C.3     
  22 C22            3.0256    -0.2955     4.5312 C.3     
  23 O23            4.1083     2.0291     2.2121 O.2     
  24 C24            3.1148    -1.7955     4.2430 C.3     
  25 C25            5.3404    -0.9046     5.2781 C.ar    
  26 C26            5.5090    -1.5321     6.4982 C.ar    
  27 C27            6.0810    -1.3108     4.1838 C.ar    
  28 C28            6.9942    -2.3408     4.3110 C.ar    
  29 C29            7.1671    -2.9642     5.5326 C.ar    
  30 C30            6.4222    -2.5620     6.6254 C.ar    
  31 C31           -0.6955    -1.6640     2.1341 C.ar    
  32 C32           -0.8638    -1.3674     3.4858 C.ar    
  33 C33           -0.5775    -2.3224     4.4399 C.ar    
  34 C34           -0.1238    -3.5720     4.0572 C.ar    
  35 C35            0.0456    -3.8718     2.7174 C.ar    
  36 C36           -0.2435    -2.9268     1.7541 C.ar    
  37 C37            5.1727    -2.7455     0.2643 C.3     
  38 F38            5.3085    -3.5944    -0.8393 F       
  39 F39            6.1599    -1.7554     0.2154 F       
  40 F40            5.3133    -3.4864     1.4427 F       
  41 H41            0.4146     0.9666    -1.5316 H       
  42 H42           -3.5102     1.3795     0.0839 H       
  43 H43           -3.0101    -0.3179     1.7894 H       
  44 H44           -2.6868     2.9655    -1.4960 H       
  45 H45           -1.0060     2.8996    -2.0782 H       
  46 H46           -2.8976     1.8729    -5.0174 H       
  47 H47            0.9935    -2.0377    -1.6173 H       
  48 H48            3.2185    -3.0861    -1.5648 H       
  49 H49            4.1391    -0.9915     2.0358 H       
  50 H50            1.5917     1.3124     1.8768 H       
  51 H51            0.9161    -0.0383     2.8188 H       
  52 H52            4.1593     0.6872     6.1057 H       
  53 H53            2.1886    -0.0815     5.1959 H       
  54 H54            3.2264    -2.3397     5.1808 H       
  55 H55            2.2058    -2.1233     3.7386 H       
  56 H56            3.9758    -1.9921     3.6041 H       
  57 H57            4.9274    -1.2175     7.3522 H       
  58 H58            5.9459    -0.8238     3.2294 H       
  59 H59            7.5722    -2.6586     3.4559 H       
  60 H60            7.8803    -3.7692     5.6319 H       
  61 H61            6.5573    -3.0491     7.5798 H       
  62 H62           -1.2173    -0.3919     3.7858 H       
  63 H63           -0.7075    -2.0938     5.4873 H       
  64 H64            0.0994    -4.3162     4.8073 H       
  65 H65            0.4008    -4.8488     2.4245 H       
  66 H66           -0.1112    -3.1621     0.7084 H       
@<TRIPOS>BOND
   1    1    2 ar
   2    1   31 1
   3    1    6 ar
   4    2    3 ar
   5    2   11 1
   6    3    4 ar
   7    3   41 1
   8    4    5 ar
   9    4    7 1
  10    5    6 ar
  11    5   42 1
  12    6   43 1
  13    7    8 1
  14    7   44 1
  15    7   45 1
  16    8    9 2
  17    8   10 1
  18   10   46 1
  19   11   12 ar
  20   11   13 ar
  21   12   17 1
  22   12   16 ar
  23   13   14 ar
  24   13   47 1
  25   14   15 ar
  26   14   48 1
  27   15   16 ar
  28   15   37 1
  29   16   49 1
  30   17   18 1
  31   17   50 1
  32   17   51 1
  33   18   19 am
  34   18   22 1
  35   19   20 1
  36   19   23 2
  37   20   21 1
  38   21   22 1
  39   21   25 1
  40   21   52 1
  41   22   24 1
  42   22   53 1
  43   24   54 1
  44   24   55 1
  45   24   56 1
  46   25   26 ar
  47   25   27 ar
  48   26   30 ar
  49   26   57 1
  50   27   28 ar
  51   27   58 1
  52   28   29 ar
  53   28   59 1
  54   29   30 ar
  55   29   60 1
  56   30   61 1
  57   31   32 ar
  58   31   36 ar
  59   32   33 ar
  60   32   62 1
  61   33   34 ar
  62   33   63 1
  63   34   35 ar
  64   34   64 1
  65   35   36 ar
  66   35   65 1
  67   36   66 1
  68   37   38 1
  69   37   39 1
  70   37   40 1

#	End of record

