#	Name: ASD05790050
#	Creating user name:	WinNT
#	Creation time:	15. 06. 2019 21:03

#	Modifying user name:	WinNT
#	Modification time:	15. 06. 2019 21:03

#	Program:	/corina/corina34_cracker 3.40 0067  02.08.2006

@<TRIPOS>MOLECULE
ASD05790050
  45   48    0    0    0
SMALL
NO_CHARGES


@<TRIPOS>ATOM
   1 C1            -0.1653     1.4721    -0.5504 C.2     
   2 C2            -0.1413    -0.0044    -0.5475 C.ar    
   3 C3             0.9214    -0.6904    -1.1426 C.ar    
   4 C4             0.9375    -2.0707    -1.1358 C.ar    
   5 C5            -0.0963    -2.7747    -0.5416 C.ar    
   6 C6            -1.1519    -2.0999     0.0496 C.ar    
   7 C7            -1.1773    -0.7214     0.0547 C.ar    
   8 O8             0.7405     2.0938    -1.0711 O.2     
   9 N9            -1.1942     2.1305     0.0193 N.am    
  10 C10           -1.1624     3.5228     0.1194 C.ar    
  11 C11           -2.3420     4.2528     0.0194 C.ar    
  12 C12           -2.3141     5.6264     0.1182 C.ar    
  13 C13           -1.0994     6.2861     0.3189 C.ar    
  14 C14            0.0832     5.5503     0.4189 C.ar    
  15 C15            0.0477     4.1761     0.3245 C.ar    
  16 O16           -2.1323     8.5738     0.3451 O.3     
  17 C17           -1.0657     7.7593     0.4248 C.2     
  18 N18            0.0093     8.4864     0.6127 N.2     
  19 C19           -0.3525     9.7856     0.6567 C.2     
  20 C20           -1.6978     9.8409     0.4887 C.2     
  21 C21            0.5552    10.9429     0.8536 C.ar    
  22 C22            1.9242    10.7384     1.0142 C.ar    
  23 C23            2.7639    11.8184     1.1970 C.ar    
  24 C24            2.2488    13.1019     1.2209 C.ar    
  25 C25            0.8906    13.3107     1.0619 C.ar    
  26 C26            0.0425    12.2384     0.8727 C.ar    
  27 C27           -3.6520     3.5403    -0.1977 C.3     
  28 Cl28          -0.0696    -4.5105    -0.5379 Cl      
  29 Cl29           2.2174     0.1913    -1.8888 Cl      
  30 H30            1.7577    -2.6025    -1.5950 H       
  31 H31           -1.9550    -2.6551     0.5113 H       
  32 H32           -1.9989    -0.1971     0.5200 H       
  33 H33           -1.9567     1.6370     0.3598 H       
  34 H34           -3.2304     6.1927     0.0401 H       
  35 H35            1.0240     6.0574     0.5737 H       
  36 H36            0.9614     3.6061     0.4062 H       
  37 H37           -2.3061    10.7332     0.4733 H       
  38 H38            2.3274     9.7366     0.9961 H       
  39 H39            3.8250    11.6610     1.3219 H       
  40 H40            2.9094    13.9442     1.3645 H       
  41 H41            0.4937    14.3149     1.0817 H       
  42 H42           -1.0171    12.4029     0.7439 H       
  43 H43           -4.0978     3.2976     0.7669 H       
  44 H44           -4.3281     4.1857    -0.7584 H       
  45 H45           -3.4776     2.6221    -0.7586 H       
@<TRIPOS>BOND
   1    1    2 1
   2    1    8 2
   3    1    9 am
   4    2    3 ar
   5    2    7 ar
   6    3    4 ar
   7    3   29 1
   8    4    5 ar
   9    4   30 1
  10    5    6 ar
  11    5   28 1
  12    6    7 ar
  13    6   31 1
  14    7   32 1
  15    9   10 1
  16    9   33 1
  17   10   11 ar
  18   10   15 ar
  19   11   12 ar
  20   11   27 1
  21   12   13 ar
  22   12   34 1
  23   13   14 ar
  24   13   17 1
  25   14   15 ar
  26   14   35 1
  27   15   36 1
  28   16   17 1
  29   16   20 1
  30   17   18 2
  31   18   19 1
  32   19   20 2
  33   19   21 1
  34   20   37 1
  35   21   22 ar
  36   21   26 ar
  37   22   23 ar
  38   22   38 1
  39   23   24 ar
  40   23   39 1
  41   24   25 ar
  42   24   40 1
  43   25   26 ar
  44   25   41 1
  45   26   42 1
  46   27   43 1
  47   27   44 1
  48   27   45 1

#	End of record

