#	Name: ASD01881212
#	Creating user name:	WinNT
#	Creation time:	15. 06. 2019 19:42

#	Modifying user name:	WinNT
#	Modification time:	15. 06. 2019 19:42

#	Program:	/corina/corina34_cracker 3.40 0067  02.08.2006

@<TRIPOS>MOLECULE
ASD01881212
  52   55    0    0    0
SMALL
NO_CHARGES


@<TRIPOS>ATOM
   1 N1             0.0006     1.3179    -0.2012 N.ar    
   2 C2             0.0234    -0.0044    -0.2231 C.ar    
   3 N3             1.1426    -0.6835    -0.0307 N.ar    
   4 C4             2.2895    -0.0583     0.1920 C.ar    
   5 C5             2.3110     1.3224     0.2227 C.ar    
   6 C6             1.1140     2.0111     0.0167 C.ar    
   7 C7             3.5963     2.0681     0.4737 C.3     
   8 O8             4.6358     1.1363     0.7792 O.3     
   9 C9             5.8668     1.6480     1.0331 C.ar    
  10 C10            6.9244     0.7958     1.3375 C.ar    
  11 C11            8.1694     1.3134     1.5939 C.ar    
  12 C12            8.3842     2.6953     1.5514 C.ar    
  13 C13            7.3182     3.5478     1.2449 C.ar    
  14 C14            6.0710     3.0210     0.9832 C.ar    
  15 C15            9.4959     0.6873     1.9455 C.3     
  16 N16           10.4457     1.7960     2.0929 N.am    
  17 C17            9.7998     2.9523     1.8646 C.2     
  18 O18           10.3118     4.0542     1.9098 O.2     
  19 Cl19           7.5664     5.2651     1.1883 Cl      
  20 N20            1.0871     3.3960     0.0381 N.3     
  21 C21           -0.1582     3.8894     0.6440 C.3     
  22 C22           -0.1201     5.4189     0.7019 C.3     
  23 O23            0.0827     5.9359    -0.6161 O.3     
  24 C24            1.2868     5.4762    -1.2359 C.3     
  25 C25            1.2630     3.9473    -1.3134 C.3     
  26 C26           12.6855     1.5247     1.1489 C.3     
  27 C27           11.8647     1.6642     2.4325 C.3     
  28 O28           -1.1286    -0.6806    -0.4478 O.3     
  29 C29           -1.0511    -2.1074    -0.4616 C.3     
  30 H30            3.1973    -0.6221     0.3482 H       
  31 H31            3.8671     2.6354    -0.4168 H       
  32 H32            3.4623     2.7509     1.3127 H       
  33 H33            6.7654    -0.2718     1.3724 H       
  34 H34            5.2480     3.6790     0.7463 H       
  35 H35            9.4138     0.1370     2.8828 H       
  36 H36            9.8193     0.0206     1.1461 H       
  37 H37           -1.0081     3.5691     0.0414 H       
  38 H38           -0.2553     3.4893     1.6532 H       
  39 H39           -1.0648     5.7917     1.0977 H       
  40 H40            0.6975     5.7384     1.3480 H       
  41 H41            1.3596     5.8905    -2.2414 H       
  42 H42            2.1453     5.7974    -0.6461 H       
  43 H43            2.2032     3.5895    -1.7329 H       
  44 H44            0.4358     3.6279    -1.9473 H       
  45 H45           12.5412     2.4085     0.5274 H       
  46 H46           13.7413     1.4267     1.4015 H       
  47 H47           12.3588     0.6396     0.6031 H       
  48 H48           12.1914     2.5494     2.9783 H       
  49 H49           12.0090     0.7804     3.0539 H       
  50 H50           -0.3662    -2.4265    -1.2473 H       
  51 H51           -0.6873    -2.4609     0.5031 H       
  52 H52           -2.0407    -2.5232    -0.6514 H       
@<TRIPOS>BOND
   1    1    2 ar
   2    1    6 ar
   3    2    3 ar
   4    2   28 1
   5    3    4 ar
   6    4    5 ar
   7    4   30 1
   8    5    6 ar
   9    5    7 1
  10    6   20 1
  11    7    8 1
  12    7   31 1
  13    7   32 1
  14    8    9 1
  15    9   10 ar
  16    9   14 ar
  17   10   11 ar
  18   10   33 1
  19   11   12 ar
  20   11   15 1
  21   12   13 ar
  22   12   17 1
  23   13   14 ar
  24   13   19 1
  25   14   34 1
  26   15   16 1
  27   15   35 1
  28   15   36 1
  29   16   17 am
  30   16   27 1
  31   17   18 2
  32   20   21 1
  33   20   25 1
  34   21   22 1
  35   21   37 1
  36   21   38 1
  37   22   23 1
  38   22   39 1
  39   22   40 1
  40   23   24 1
  41   24   25 1
  42   24   41 1
  43   24   42 1
  44   25   43 1
  45   25   44 1
  46   26   27 1
  47   26   45 1
  48   26   46 1
  49   26   47 1
  50   27   48 1
  51   27   49 1
  52   28   29 1
  53   29   50 1
  54   29   51 1
  55   29   52 1

#	End of record

