#	Name: ASD02560275
#	Creating user name:	WinNT
#	Creation time:	15. 06. 2019 20:25

#	Modifying user name:	WinNT
#	Modification time:	15. 06. 2019 20:25

#	Program:	/corina/corina34_cracker 3.40 0067  02.08.2006

@<TRIPOS>MOLECULE
ASD02560275
  32   34    0    0    0
SMALL
NO_CHARGES


@<TRIPOS>ATOM
   1 C1            -0.0092     1.3380     0.0885 C.2     
   2 O2            -0.0095     0.0042    -0.1009 O.3     
   3 C3            -1.2758    -0.4058     0.0992 C.2     
   4 N4            -1.9860     0.6555     0.3947 N.2     
   5 N5            -1.2236     1.6919     0.3923 N.2     
   6 N6            -1.7414    -1.7055     0.0091 N.pl3   
   7 C7             1.1828     2.2531    -0.0246 C.3     
   8 C8             1.8613     2.3623     1.3165 C.ar    
   9 C9             2.8664     1.4752     1.6578 C.ar    
  10 C10            3.4893     1.5763     2.8891 C.ar    
  11 C11            3.1076     2.5634     3.7781 C.ar    
  12 C12            2.1031     3.4498     3.4378 C.ar    
  13 C13            1.4834     3.3533     2.2046 C.ar    
  14 C14           -3.1093    -1.9676     0.1263 C.ar    
  15 C15           -4.0375    -1.0108    -0.2655 C.ar    
  16 C16           -5.3884    -1.2724    -0.1491 C.ar    
  17 C17           -5.8185    -2.4854     0.3569 C.ar    
  18 C18           -4.8972    -3.4410     0.7482 C.ar    
  19 C19           -3.5436    -3.1870     0.6292 C.ar    
  20 Cl20           3.3456     0.2350     0.5416 Cl      
  21 Cl21           0.2222     4.4671     1.7771 Cl      
  22 Cl22          -5.4418    -4.9623     1.3828 Cl      
  23 H23           -1.1185    -2.4349    -0.1354 H       
  24 H24            1.8838     1.8482    -0.7546 H       
  25 H25            0.8532     3.2410    -0.3466 H       
  26 H26            4.2737     0.8835     3.1557 H       
  27 H27            3.5941     2.6419     4.7391 H       
  28 H28            1.8048     4.2205     4.1331 H       
  29 H29           -3.7027    -0.0630    -0.6605 H       
  30 H30           -6.1099    -0.5286    -0.4533 H       
  31 H31           -6.8756    -2.6872     0.4471 H       
  32 H32           -2.8246    -3.9329     0.9346 H       
@<TRIPOS>BOND
   1    1    2 1
   2    1    7 1
   3    1    5 2
   4    2    3 1
   5    3    4 2
   6    3    6 1
   7    4    5 1
   8    6   14 1
   9    6   23 1
  10    7    8 1
  11    7   24 1
  12    7   25 1
  13    8    9 ar
  14    8   13 ar
  15    9   10 ar
  16    9   20 1
  17   10   11 ar
  18   10   26 1
  19   11   12 ar
  20   11   27 1
  21   12   13 ar
  22   12   28 1
  23   13   21 1
  24   14   15 ar
  25   14   19 ar
  26   15   16 ar
  27   15   29 1
  28   16   17 ar
  29   16   30 1
  30   17   18 ar
  31   17   31 1
  32   18   19 ar
  33   18   22 1
  34   19   32 1

#	End of record

