#	Name: ASD01140200
#	Creating user name:	WinNT
#	Creation time:	15. 06. 2019 19:00

#	Modifying user name:	WinNT
#	Modification time:	15. 06. 2019 19:00

#	Program:	/corina/corina34_cracker 3.40 0067  02.08.2006

@<TRIPOS>MOLECULE
ASD01140200
  40   43    0    0    0
SMALL
NO_CHARGES


@<TRIPOS>ATOM
   1 C1             0.1102     2.1240     0.1835 C.ar    
   2 C2            -0.0779     0.7477     0.3335 C.ar    
   3 C3             1.0196    -0.1040     0.3537 C.ar    
   4 C4             2.3171     0.4071     0.2250 C.ar    
   5 C5             2.4881     1.7839     0.0515 C.ar    
   6 C6             1.3828     2.6300     0.0441 C.ar    
   7 C7             3.4385    -0.5350     0.3117 C.2     
   8 N8             4.5114    -0.5548    -0.3979 N.2     
   9 C9             4.7471     0.4147    -1.4738 C.3     
  10 C10            4.7677     1.7896    -0.8558 C.2     
  11 N11            3.7495     2.3450    -0.1514 N.pl3   
  12 C12           -1.4006     0.2154     0.4667 C.1     
  13 C13            4.2015     3.5539     0.2751 C.2     
  14 C14            3.3212    -1.5923     1.3427 C.ar    
  15 C15            3.9765    -2.8118     1.1727 C.ar    
  16 N16            5.7396     2.6555    -0.8824 N.2     
  17 N17            5.4088     3.6991    -0.2056 N.2     
  18 C18            3.8634    -3.7927     2.1365 C.ar    
  19 C19            3.1015    -3.5688     3.2694 C.ar    
  20 C20            2.4488    -2.3614     3.4434 C.ar    
  21 C21            2.5597    -1.3703     2.4899 C.ar    
  22 C22            3.6217     0.3271    -2.5066 C.3     
  23 C23           -2.4850    -0.2209     0.5760 C.1     
  24 C24            3.4539     4.5386     1.1368 C.3     
  25 H25           -0.7409     2.7887     0.1726 H       
  26 H26            0.8712    -1.1675     0.4699 H       
  27 H27            1.5252     3.6943    -0.0719 H       
  28 H28            5.7051     0.2102    -1.9520 H       
  29 H29            4.5710    -2.9880     0.2884 H       
  30 H30            4.3704    -4.7374     2.0060 H       
  31 H31            3.0157    -4.3397     4.0208 H       
  32 H32            1.8549    -2.1927     4.3295 H       
  33 H33            2.0497    -0.4282     2.6268 H       
  34 H34            2.6689     0.5476    -2.0252 H       
  35 H35            3.8022     1.0492    -3.3028 H       
  36 H36            3.5921    -0.6780    -2.9273 H       
  37 H37           -3.4549    -0.6112     0.6737 H       
  38 H38            3.5832     4.2744     2.1864 H       
  39 H39            3.8437     5.5418     0.9640 H       
  40 H40            2.3941     4.5119     0.8833 H       
@<TRIPOS>BOND
   1    1    2 ar
   2    1    6 ar
   3    1   25 1
   4    2    3 ar
   5    2   12 1
   6    3    4 ar
   7    3   26 1
   8    4    5 ar
   9    4    7 1
  10    5    6 ar
  11    5   11 1
  12    6   27 1
  13    7    8 2
  14    7   14 1
  15    8    9 1
  16    9   10 1
  17    9   22 1
  18    9   28 1
  19   10   11 1
  20   10   16 2
  21   11   13 1
  22   12   23 3
  23   13   24 1
  24   13   17 2
  25   14   15 ar
  26   14   21 ar
  27   15   18 ar
  28   15   29 1
  29   16   17 1
  30   18   19 ar
  31   18   30 1
  32   19   20 ar
  33   19   31 1
  34   20   21 ar
  35   20   32 1
  36   21   33 1
  37   22   34 1
  38   22   35 1
  39   22   36 1
  40   23   37 1
  41   24   38 1
  42   24   39 1
  43   24   40 1

#	End of record

