#	Name: ASD02448016
#	Creating user name:	WinNT
#	Creation time:	15. 06. 2019 20:21

#	Modifying user name:	WinNT
#	Modification time:	15. 06. 2019 20:21

#	Program:	/corina/corina34_cracker 3.40 0067  02.08.2006

@<TRIPOS>MOLECULE
ASD02448016
  78   84    0    0    0
SMALL
NO_CHARGES


@<TRIPOS>ATOM
   1 C1             3.3176    -7.4089    -1.0980 C.ar    
   2 C2             2.8027    -6.2969    -0.4624 C.ar    
   3 C3             2.1986    -5.2907    -1.2041 C.ar    
   4 C4             2.1121    -5.4024    -2.5852 C.ar    
   5 C5             2.6264    -6.5143    -3.2215 C.ar    
   6 C6             3.2313    -7.5210    -2.4798 C.ar    
   7 N7             3.7527    -8.6471    -3.1239 N.am    
   8 C8             4.8231    -9.5384    -2.6583 C.3     
   9 C9             5.0864   -10.6321    -3.6425 C.2     
  10 N10            4.3166   -10.5977    -4.7394 N.am    
  11 S11            3.2964    -9.2904    -4.5941 S.o2    
  12 O12            5.9308   -11.4839    -3.4629 O.2     
  13 O13            1.9788    -9.8014    -4.4455 O.2     
  14 O14            3.6748    -8.3505    -5.5903 O.2     
  15 N15            1.6748    -4.1605    -0.5575 N.pl3   
  16 C16            0.7440    -4.1584     0.4461 C.2     
  17 C17            2.0019    -2.8657    -0.8074 C.2     
  18 N18            1.3135    -2.0957    -0.0115 N.2     
  19 C19            0.5273    -2.8580     0.7752 C.2     
  20 C20           -0.4080    -2.3646     1.8158 C.ar    
  21 C21           -0.5323    -0.9968     2.0522 C.ar    
  22 C22           -1.1694    -3.2670     2.5561 C.ar    
  23 C23           -2.0379    -2.8030     3.5229 C.ar    
  24 C24           -2.1539    -1.4436     3.7576 C.ar    
  25 C25           -1.4036    -0.5428     3.0213 C.ar    
  26 Cl26          -3.2487    -0.8662     4.9749 Cl      
  27 C27            2.9980    -2.3962    -1.8361 C.3     
  28 C28            4.3368    -2.1825    -1.1781 C.ar    
  29 C29            5.2084    -3.2460    -1.0280 C.ar    
  30 C30            4.6918    -0.9224    -0.7316 C.ar    
  31 C31            5.9169    -0.7209    -0.1286 C.ar    
  32 C32            6.7966    -1.7897     0.0299 C.ar    
  33 C33            6.4360    -3.0559    -0.4265 C.ar    
  34 C34            8.1153    -1.5791     0.6769 C.ar    
  35 C35            8.9951    -2.6479     0.8355 C.ar    
  36 C36            8.4807    -0.3106     1.1230 C.ar    
  37 C37            9.7084    -0.1204     1.7241 C.ar    
  38 C38           10.5757    -1.1860     1.8837 C.ar    
  39 C39           10.2203    -2.4463     1.4380 C.ar    
  40 C40           11.9153    -0.9719     2.5400 C.3     
  41 C41           12.0149    -1.8448     3.7926 C.3     
  42 C42           13.3750    -1.6274     4.4588 C.3     
  43 C43           14.4885    -2.0090     3.4814 C.3     
  44 C44           14.3889    -1.1362     2.2288 C.3     
  45 C45           13.0289    -1.3535     1.5626 C.3     
  46 H46            3.7915    -8.1895    -0.5213 H       
  47 H47            2.8694    -6.2098     0.6120 H       
  48 H48            1.6421    -4.6195    -3.1618 H       
  49 H49            2.5584    -6.6014    -4.2958 H       
  50 H50            5.7349    -8.9580    -2.5173 H       
  51 H51            4.5315    -9.9788    -1.7048 H       
  52 H52            4.3465   -11.2223    -5.4810 H       
  53 H53            0.2726    -5.0228     0.8899 H       
  54 H54            0.0526    -0.2933     1.4783 H       
  55 H55           -1.0802    -4.3277     2.3733 H       
  56 H56           -2.6284    -3.5015     4.0972 H       
  57 H57           -1.4973     0.5167     3.2083 H       
  58 H58            3.0939    -3.1486    -2.6189 H       
  59 H59            2.6543    -1.4587    -2.2733 H       
  60 H60            4.9277    -4.2270    -1.3818 H       
  61 H61            4.0093    -0.0946    -0.8553 H       
  62 H62            6.1932     0.2635     0.2193 H       
  63 H63            7.1140    -3.8878    -0.3058 H       
  64 H64            8.7186    -3.6323     0.4879 H       
  65 H65            7.8045     0.5223     0.9983 H       
  66 H66            9.9926     0.8624     2.0703 H       
  67 H67           10.9012    -3.2750     1.5655 H       
  68 H68           12.0200     0.0767     2.8185 H       
  69 H69           11.2217    -1.5729     4.4889 H       
  70 H70           11.9103    -2.8934     3.5140 H       
  71 H71           13.4797    -0.5788     4.7374 H       
  72 H72           13.4460    -2.2493     5.3512 H       
  73 H73           15.4575    -1.8542     3.9561 H       
  74 H74           14.3839    -3.0576     3.2029 H       
  75 H75           14.4936    -0.0876     2.5074 H       
  76 H76           15.1822    -1.4080     1.5325 H       
  77 H77           12.9242    -2.4021     1.2840 H       
  78 H78           12.9579    -0.7317     0.6702 H       
@<TRIPOS>BOND
   1    1    2 ar
   2    1    6 ar
   3    1   46 1
   4    2    3 ar
   5    2   47 1
   6    3    4 ar
   7    3   15 1
   8    4    5 ar
   9    4   48 1
  10    5    6 ar
  11    5   49 1
  12    6    7 1
  13    7    8 1
  14    7   11 am
  15    8    9 1
  16    8   50 1
  17    8   51 1
  18    9   10 am
  19    9   12 2
  20   10   11 am
  21   10   52 1
  22   11   13 2
  23   11   14 2
  24   15   16 1
  25   15   17 1
  26   16   19 2
  27   16   53 1
  28   17   18 2
  29   17   27 1
  30   18   19 1
  31   19   20 1
  32   20   21 ar
  33   20   22 ar
  34   21   25 ar
  35   21   54 1
  36   22   23 ar
  37   22   55 1
  38   23   24 ar
  39   23   56 1
  40   24   25 ar
  41   24   26 1
  42   25   57 1
  43   27   28 1
  44   27   58 1
  45   27   59 1
  46   28   29 ar
  47   28   30 ar
  48   29   33 ar
  49   29   60 1
  50   30   31 ar
  51   30   61 1
  52   31   32 ar
  53   31   62 1
  54   32   33 ar
  55   32   34 1
  56   33   63 1
  57   34   35 ar
  58   34   36 ar
  59   35   39 ar
  60   35   64 1
  61   36   37 ar
  62   36   65 1
  63   37   38 ar
  64   37   66 1
  65   38   39 ar
  66   38   40 1
  67   39   67 1
  68   40   41 1
  69   40   45 1
  70   40   68 1
  71   41   42 1
  72   41   69 1
  73   41   70 1
  74   42   43 1
  75   42   71 1
  76   42   72 1
  77   43   44 1
  78   43   73 1
  79   43   74 1
  80   44   45 1
  81   44   75 1
  82   44   76 1
  83   45   77 1
  84   45   78 1

#	End of record

