#	Name: ASD05740041
#	Creating user name:	WinNT
#	Creation time:	15. 06. 2019 21:02

#	Modifying user name:	WinNT
#	Modification time:	15. 06. 2019 21:02

#	Program:	/corina/corina34_cracker 3.40 0067  02.08.2006

@<TRIPOS>MOLECULE
ASD05740041
  44   47    0    0    0
SMALL
NO_CHARGES


@<TRIPOS>ATOM
   1 C1            -0.2148     2.1296     0.1020 C.3     
   2 C2             0.4520     1.5803     8.1710 C.3     
   3 C3             2.7684     2.5440     7.8350 C.2     
   4 C4             4.0125     2.5206     7.2277 C.2     
   5 C5             1.8080     1.5616     7.5137 C.2     
   6 C6             2.1176     0.5958     6.6038 C.2     
   7 C7             3.3878     0.6001     6.0053 C.2     
   8 O8             4.2892     1.5387     6.3206 O.3     
   9 C9             1.1089    -0.4646     6.2444 C.3     
  10 C10            0.3603    -0.0464     5.0052 C.ar    
  11 C11           -0.8615     0.6077     5.1001 C.ar    
  12 O12            3.6732    -0.2605     5.1900 O.2     
  13 C13            0.1547     0.1014     2.6244 C.ar    
  14 N14           -1.0085     0.7181     2.7584 N.ar    
  15 C15           -1.5218     0.9779     3.9465 C.ar    
  16 N16            0.6586    -0.1519     1.3524 N.am    
  17 S17           -0.1965     0.3178     0.0143 S.o2    
  18 O18           -1.5001    -0.2050     0.2301 O.2     
  19 O19            0.5967    -0.1205    -1.0802 O.2     
  20 C20            4.8438     3.5575     7.6532 C.2     
  21 C21            4.3209     4.3872     8.5559 C.2     
  22 S22            2.6825     3.8991     8.9556 S.3     
  23 O23            6.1104     3.7119     7.1762 O.3     
  24 C24            6.7958     4.8231     7.5392 C.2     
  25 N25            6.3015     5.8125     8.2137 N.2     
  26 S26            8.4408     5.1198     7.1800 S.3     
  27 C27            8.3540     6.6697     8.0131 C.2     
  28 C28            7.1142     6.8183     8.4820 C.2     
  29 C29            0.8768    -0.3009     3.7462 C.ar    
  30 F30            2.0645    -0.9295     3.6072 F       
  31 H31            0.8085     2.5047     0.0833 H       
  32 H32           -0.7638     2.5291    -0.7508 H       
  33 H33           -0.7001     2.4438     1.0260 H       
  34 H34            0.3950     2.4211     8.8624 H       
  35 H35           -0.3200     1.6840     7.4085 H       
  36 H36            0.3002     0.6495     8.7175 H       
  37 H37            1.6236    -1.4071     6.0572 H       
  38 H38            0.4062    -0.5917     7.0679 H       
  39 H39           -1.2905     0.8239     6.0674 H       
  40 H40           -2.4718     1.4869     4.0166 H       
  41 H41            1.5108    -0.6037     1.2494 H       
  42 H42            4.8335     5.2361     8.9836 H       
  43 H43            9.1640     7.3749     8.1270 H       
  44 H44            6.7998     7.6914     9.0346 H       
@<TRIPOS>BOND
   1    1   17 1
   2    1   31 1
   3    1   32 1
   4    1   33 1
   5    2    5 1
   6    2   34 1
   7    2   35 1
   8    2   36 1
   9    3    4 2
  10    3    5 1
  11    3   22 1
  12    4   20 1
  13    4    8 1
  14    5    6 2
  15    6    7 1
  16    6    9 1
  17    7    8 1
  18    7   12 2
  19    9   10 1
  20    9   37 1
  21    9   38 1
  22   10   11 ar
  23   10   29 ar
  24   11   15 ar
  25   11   39 1
  26   13   14 ar
  27   13   16 1
  28   13   29 ar
  29   14   15 ar
  30   15   40 1
  31   16   17 am
  32   16   41 1
  33   17   18 2
  34   17   19 2
  35   20   21 2
  36   20   23 1
  37   21   22 1
  38   21   42 1
  39   23   24 1
  40   24   26 1
  41   24   25 2
  42   25   28 1
  43   26   27 1
  44   27   28 2
  45   27   43 1
  46   28   44 1
  47   29   30 1

#	End of record

