#	Name: ASD00110002
#	Creating user name:	WinNT
#	Creation time:	15. 06. 2019 18:30

#	Modifying user name:	WinNT
#	Modification time:	15. 06. 2019 18:30

#	Program:	/corina/corina34_cracker 3.40 0067  02.08.2006

@<TRIPOS>MOLECULE
ASD00110002
  60   62    0    0    0
SMALL
NO_CHARGES


@<TRIPOS>ATOM
   1 N1             1.2361     0.6347     1.6735 N.3     
   2 C2             1.7436    -0.6959     2.0364 C.3     
   3 C3             2.4614    -1.3109     0.8326 C.3     
   4 N4             3.5593    -0.4272     0.4163 N.3     
   5 C5             3.0518     0.9034     0.0534 C.3     
   6 C6             2.3340     1.5184     1.2572 C.3     
   7 C7             4.2837    -0.9908    -0.6365 C.ar    
   8 C8             3.6350    -1.3637    -1.8069 C.ar    
   9 C9             4.3544    -1.9203    -2.8461 C.ar    
  10 C10            5.7190    -2.1065    -2.7225 C.ar    
  11 C11            6.3680    -1.7365    -1.5588 C.ar    
  12 C12            5.6555    -1.1745    -0.5178 C.ar    
  13 C13            4.2032     1.7876    -0.3509 C.2     
  14 N14            3.9652     2.9854    -0.9210 N.am    
  15 O15            5.3441     1.4212    -0.1634 O.2     
  16 C16            5.0802     3.8835    -1.2312 C.3     
  17 C17            4.6291     5.3353    -1.0585 C.3     
  18 O18            4.0650     5.5073     0.2432 O.3     
  19 C19            5.8335     6.2667    -1.2184 C.3     
  20 C20            6.8538     5.9628    -0.1170 C.3     
  21 C21            6.1765     6.1176     1.2481 C.3     
  22 C22            4.9588     5.1919     1.3127 C.3     
  23 S23            4.1087     5.4205     2.8988 S.3     
  24 O24            5.7563     7.4723     1.4218 O.3     
  25 O25            7.3320     4.6243    -0.2644 O.3     
  26 O26            6.4343     6.0550    -2.4976 O.3     
  27 C27            5.5301     3.6578    -2.6760 C.3     
  28 C28            5.2890     2.1973    -3.0630 C.3     
  29 Cl29           7.2866     4.0368    -2.8248 Cl      
  30 C30            2.9101     4.0590     2.9193 C.3     
  31 H31            0.5319     0.5692     0.9538 H       
  32 H32            2.4418    -0.6043     2.8683 H       
  33 H33            0.9108    -1.3354     2.3288 H       
  34 H34            2.8638    -2.2857     1.1082 H       
  35 H35            1.7564    -1.4276     0.0095 H       
  36 H36            2.3536     0.8118    -0.7785 H       
  37 H37            1.9316     2.4932     0.9816 H       
  38 H38            3.0389     1.6351     2.0803 H       
  39 H39            2.5691    -1.2188    -1.9038 H       
  40 H40            3.8505    -2.2107    -3.7561 H       
  41 H41            6.2792    -2.5424    -3.5366 H       
  42 H42            7.4339    -1.8833    -1.4656 H       
  43 H43            6.1637    -0.8816     0.3891 H       
  44 H44            3.0556     3.2529    -1.1258 H       
  45 H45            5.9108     3.6783    -0.5558 H       
  46 H46            3.8808     5.5757    -1.8137 H       
  47 H47            5.5060     7.3030    -1.1357 H       
  48 H48            7.6886     6.6598    -0.1910 H       
  49 H49            6.8800     5.8496     2.0363 H       
  50 H50            5.2845     4.1558     1.2207 H       
  51 H51            5.3182     7.6429     2.2669 H       
  52 H52            7.9257     4.3385     0.4433 H       
  53 H53            7.1546     6.6676    -2.7000 H       
  54 H54            4.9606     4.3083    -3.3398 H       
  55 H55            4.2272     1.9681    -2.9731 H       
  56 H56            5.6095     2.0365    -4.0923 H       
  57 H57            5.8586     1.5468    -2.3992 H       
  58 H58            2.3326     4.0973     3.8429 H       
  59 H59            2.2381     4.1537     2.0664 H       
  60 H60            3.4395     3.1080     2.8609 H       
@<TRIPOS>BOND
   1    1    2 1
   2    1    6 1
   3    1   31 1
   4    2    3 1
   5    2   32 1
   6    2   33 1
   7    3    4 1
   8    3   34 1
   9    3   35 1
  10    4    5 1
  11    4    7 1
  12    5    6 1
  13    5   13 1
  14    5   36 1
  15    6   37 1
  16    6   38 1
  17    7    8 ar
  18    7   12 ar
  19    8    9 ar
  20    8   39 1
  21    9   10 ar
  22    9   40 1
  23   10   11 ar
  24   10   41 1
  25   11   12 ar
  26   11   42 1
  27   12   43 1
  28   13   14 am
  29   13   15 2
  30   14   16 1
  31   14   44 1
  32   16   17 1
  33   16   27 1
  34   16   45 1
  35   17   19 1
  36   17   18 1
  37   17   46 1
  38   18   22 1
  39   19   20 1
  40   19   26 1
  41   19   47 1
  42   20   21 1
  43   20   25 1
  44   20   48 1
  45   21   22 1
  46   21   24 1
  47   21   49 1
  48   22   23 1
  49   22   50 1
  50   23   30 1
  51   24   51 1
  52   25   52 1
  53   26   53 1
  54   27   28 1
  55   27   29 1
  56   27   54 1
  57   28   55 1
  58   28   56 1
  59   28   57 1
  60   30   58 1
  61   30   59 1
  62   30   60 1

#	End of record

