#	Name: ASD01810890
#	Creating user name:	WinNT
#	Creation time:	15. 06. 2019 19:25

#	Modifying user name:	WinNT
#	Modification time:	15. 06. 2019 19:25

#	Program:	/corina/corina34_cracker 3.40 0067  02.08.2006

@<TRIPOS>MOLECULE
ASD01810890
  70   75    0    0    0
SMALL
NO_CHARGES


@<TRIPOS>ATOM
   1 C1            -7.3464     2.1554    -3.9255 C.1     
   2 C2            -6.3675     2.9519    -3.2487 C.ar    
   3 C3            -5.2037     2.3609    -2.7527 C.ar    
   4 C4            -4.2649     3.1340    -2.1017 C.ar    
   5 C5            -4.4746     4.4920    -1.9393 C.ar    
   6 C6            -5.6258     5.0840    -2.4278 C.ar    
   7 C7            -6.5698     4.3239    -3.0867 C.ar    
   8 N8            -8.1230     1.5236    -4.4624 N.1     
   9 N9            -2.4186     7.7558    -0.1955 N.am    
  10 C10           -1.8591     7.2466    -1.4550 C.3     
  11 C11           -2.9306     6.4186    -2.1714 C.3     
  12 C12           -3.4447     5.3300    -1.2265 C.3     
  13 C13           -4.0795     5.9795     0.0053 C.3     
  14 C14           -3.0211     6.8025     0.7463 C.3     
  15 C15           -2.3749     9.0716     0.0931 C.2     
  16 C16           -3.0197     9.5807     1.3224 C.ar    
  17 C17           -3.9764    10.5953     1.2424 C.ar    
  18 C18           -4.5792    11.0715     2.3893 C.ar    
  19 C19           -4.2414    10.5490     3.6224 C.ar    
  20 C20           -3.2872     9.5344     3.7164 C.ar    
  21 C21           -2.6788     9.0454     2.5627 C.ar    
  22 O22           -1.8054     9.8397    -0.6573 O.2     
  23 N23           -2.9238     8.5973     7.1303 N.2     
  24 N24           -3.4887     9.2676     6.1900 N.2     
  25 C25           -2.9263     8.9763     5.0383 C.2     
  26 N26           -1.9435     8.0588     5.2940 N.pl3   
  27 C27           -1.9761     7.8457     6.6376 C.2     
  28 O28           -1.8672     5.8736     8.0110 O.3     
  29 C29           -1.0829     6.9132     7.4145 C.3     
  30 C30           -0.3859     7.6849     8.5555 C.3     
  31 C31           -0.4151     6.6539     9.7166 C.3     
  32 C32           -1.7625     5.9399     9.4422 C.3     
  33 C33           -4.3508    11.1717    -0.0987 C.3     
  34 C34           -4.9039    11.0757     4.8692 C.3     
  35 C35           -4.7659    12.5973     5.0443 C.3     
  36 C36           -6.2229    12.5937     5.5362 C.3     
  37 C37           -6.4156    11.3102     4.7114 C.3     
  38 H38           -5.0390     1.3009    -2.8782 H       
  39 H39           -3.3642     2.6783    -1.7176 H       
  40 H40           -5.7834     6.1444    -2.2973 H       
  41 H41           -7.4657     4.7881    -3.4718 H       
  42 H42           -1.5607     8.0832    -2.0869 H       
  43 H43           -0.9934     6.6191    -1.2431 H       
  44 H44           -3.7567     7.0670    -2.4632 H       
  45 H45           -2.4996     5.9559    -3.0592 H       
  46 H46           -2.6136     4.6971    -0.9154 H       
  47 H47           -4.8949     6.6320    -0.3070 H       
  48 H48           -4.4663     5.2042     0.6667 H       
  49 H49           -2.2502     6.1388     1.1377 H       
  50 H50           -3.4894     7.3460     1.5669 H       
  51 H51           -5.3180    11.8564     2.3222 H       
  52 H52           -1.9427     8.2580     2.6298 H       
  53 H53           -1.3469     7.6457     4.6503 H       
  54 H54           -0.3349     6.4780     6.7517 H       
  55 H55            0.6398     7.9352     8.2846 H       
  56 H56           -0.9486     8.5808     8.8181 H       
  57 H57            0.4203     5.9575     9.6447 H       
  58 H58           -0.4254     7.1534    10.6854 H       
  59 H59           -2.5885     6.5187     9.8555 H       
  60 H60           -1.7525     4.9364     9.8676 H       
  61 H61           -5.1187    10.5504    -0.5596 H       
  62 H62           -4.7337    12.1835     0.0347 H       
  63 H63           -3.4708    11.1981    -0.7413 H       
  64 H64           -4.6396    10.5078     5.7612 H       
  65 H65           -4.0469    12.8851     5.8112 H       
  66 H66           -4.6231    13.1336     4.1062 H       
  67 H67           -6.3206    12.4409     6.6110 H       
  68 H68           -6.8085    13.4382     5.1728 H       
  69 H69           -6.7237    11.4946     3.6823 H       
  70 H70           -7.0283    10.5589     5.2097 H       
@<TRIPOS>BOND
   1    1    2 1
   2    1    8 3
   3    2    3 ar
   4    2    7 ar
   5    3    4 ar
   6    3   38 1
   7    4    5 ar
   8    4   39 1
   9    5    6 ar
  10    5   12 1
  11    6    7 ar
  12    6   40 1
  13    7   41 1
  14    9   10 1
  15    9   14 1
  16    9   15 am
  17   10   11 1
  18   10   42 1
  19   10   43 1
  20   11   12 1
  21   11   44 1
  22   11   45 1
  23   12   13 1
  24   12   46 1
  25   13   14 1
  26   13   47 1
  27   13   48 1
  28   14   49 1
  29   14   50 1
  30   15   16 1
  31   15   22 2
  32   16   17 ar
  33   16   21 ar
  34   17   18 ar
  35   17   33 1
  36   18   19 ar
  37   18   51 1
  38   19   20 ar
  39   19   34 1
  40   20   21 ar
  41   20   25 1
  42   21   52 1
  43   23   24 1
  44   23   27 2
  45   24   25 2
  46   25   26 1
  47   26   27 1
  48   26   53 1
  49   27   29 1
  50   28   29 1
  51   28   32 1
  52   29   30 1
  53   29   54 1
  54   30   31 1
  55   30   55 1
  56   30   56 1
  57   31   32 1
  58   31   57 1
  59   31   58 1
  60   32   59 1
  61   32   60 1
  62   33   61 1
  63   33   62 1
  64   33   63 1
  65   34   35 1
  66   34   37 1
  67   34   64 1
  68   35   36 1
  69   35   65 1
  70   35   66 1
  71   36   37 1
  72   36   67 1
  73   36   68 1
  74   37   69 1
  75   37   70 1

#	End of record

