#	Name: ASD01882452
#	Creating user name:	WinNT
#	Creation time:	15. 06. 2019 19:44

#	Modifying user name:	WinNT
#	Modification time:	15. 06. 2019 19:44

#	Program:	/corina/corina34_cracker 3.40 0067  02.08.2006

@<TRIPOS>MOLECULE
ASD01882452
  61   66    0    0    0
SMALL
NO_CHARGES


@<TRIPOS>ATOM
   1 C1            -0.2765     1.5223    -0.0442 C.3     
   2 N2            -0.3867     0.0509    -0.0743 N.3     
   3 C3             0.9240    -0.0085     0.6015 C.3     
   4 C4             1.2429     1.3488    -0.0267 C.3     
   5 C5             1.8754     1.2606    -1.4136 C.3     
   6 N6             2.0542     2.6259    -1.9320 N.pl3   
   7 C7             2.7355     3.6155    -1.0868 C.3     
   8 C8             2.0154     3.7030     0.2620 C.3     
   9 C9             1.9704     2.3130     0.9047 C.3     
  10 C10           -1.4591    -0.4151     0.8149 C.3     
  11 C11           -1.7068    -1.8825     0.5772 C.ar    
  12 C12           -0.8701    -2.8271     1.1479 C.ar    
  13 C13           -1.0981    -4.1746     0.9298 C.ar    
  14 C14           -2.1625    -4.5767     0.1411 C.ar    
  15 C15           -2.9976    -3.6306    -0.4285 C.ar    
  16 C16           -2.7720    -2.2851    -0.2056 C.ar    
  17 F17           -2.3859    -5.8918    -0.0731 F       
  18 F18            0.1685    -2.4333     1.9170 F       
  19 C19            1.6545     2.7738    -5.5794 C.2     
  20 C20            2.1426     2.4082    -4.3134 C.2     
  21 C21            1.5881     2.9724    -3.1967 C.2     
  22 C22            0.5397     3.9079    -3.3359 C.2     
  23 C23            0.0872     4.2439    -4.5597 C.2     
  24 N24            0.6333     3.6872    -5.6793 N.pl3   
  25 N25            1.2222     3.0467    -7.6499 N.2     
  26 N26            1.9749     2.4206    -6.8150 N.2     
  27 C27            0.3905     3.8290    -7.0140 C.2     
  28 C28            3.2621     1.4073    -4.1869 C.3     
  29 F29            2.7256     0.1288    -4.0002 F       
  30 F30            4.0354     1.4229    -5.3527 F       
  31 F31            4.0644     1.7411    -3.0906 F       
  32 C32           -0.6463     4.7250    -7.6410 C.3     
  33 C33           -0.0338     6.1001    -7.9146 C.3     
  34 C34           -0.8953     7.1218    -8.6594 C.3     
  35 C35           -0.6214     7.2972    -7.1644 C.3     
  36 H36           -0.6485     2.0046    -0.9481 H       
  37 H37           -0.6735     1.9693     0.8672 H       
  38 H38            0.8541     0.0215     1.6888 H       
  39 H39            1.5627    -0.8149     0.2412 H       
  40 H40            2.8440     0.7655    -1.3437 H       
  41 H41            1.2207     0.6986    -2.0797 H       
  42 H42            3.7696     3.3095    -0.9286 H       
  43 H43            2.7132     4.5895    -1.5757 H       
  44 H44            2.5522     4.3893     0.9170 H       
  45 H45            0.9991     4.0660     0.1088 H       
  46 H46            1.4410     2.3691     1.8558 H       
  47 H47            2.9868     1.9577     1.0742 H       
  48 H48           -1.1637    -0.2599     1.8526 H       
  49 H49           -2.3710     0.1454     0.6090 H       
  50 H50           -0.4460    -4.9119     1.3742 H       
  51 H51           -3.8280    -3.9440    -1.0438 H       
  52 H52           -3.4264    -1.5479    -0.6469 H       
  53 H53            0.0985     4.3557    -2.4577 H       
  54 H54           -0.7151     4.9605    -4.6553 H       
  55 H55           -0.9869     4.2859    -8.5787 H       
  56 H56           -1.4921     4.8327    -6.9619 H       
  57 H57            1.0382     6.1064    -8.1120 H       
  58 H58           -0.3901     7.8004    -9.3467 H       
  59 H59           -1.8985     6.8143    -8.9546 H       
  60 H60           -1.4444     7.1051    -6.4760 H       
  61 H61            0.0640     8.0912    -6.8681 H       
@<TRIPOS>BOND
   1    1    2 1
   2    1    4 1
   3    1   36 1
   4    1   37 1
   5    2    3 1
   6    2   10 1
   7    3    4 1
   8    3   38 1
   9    3   39 1
  10    4    5 1
  11    4    9 1
  12    5    6 1
  13    5   40 1
  14    5   41 1
  15    6    7 1
  16    6   21 1
  17    7    8 1
  18    7   42 1
  19    7   43 1
  20    8    9 1
  21    8   44 1
  22    8   45 1
  23    9   46 1
  24    9   47 1
  25   10   11 1
  26   10   48 1
  27   10   49 1
  28   11   12 ar
  29   11   16 ar
  30   12   13 ar
  31   12   18 1
  32   13   14 ar
  33   13   50 1
  34   14   15 ar
  35   14   17 1
  36   15   16 ar
  37   15   51 1
  38   16   52 1
  39   19   20 1
  40   19   24 1
  41   19   26 2
  42   20   21 2
  43   20   28 1
  44   21   22 1
  45   22   23 2
  46   22   53 1
  47   23   24 1
  48   23   54 1
  49   24   27 1
  50   25   26 1
  51   25   27 2
  52   27   32 1
  53   28   29 1
  54   28   30 1
  55   28   31 1
  56   32   33 1
  57   32   55 1
  58   32   56 1
  59   33   34 1
  60   33   35 1
  61   33   57 1
  62   34   35 1
  63   34   58 1
  64   34   59 1
  65   35   60 1
  66   35   61 1

#	End of record

