#	Name: ASD03091629
#	Creating user name:	WinNT
#	Creation time:	15. 06. 2019 20:31

#	Modifying user name:	WinNT
#	Modification time:	15. 06. 2019 20:31

#	Program:	/corina/corina34_cracker 3.40 0067  02.08.2006

@<TRIPOS>MOLECULE
ASD03091629
  33   34    0    0    0
SMALL
NO_CHARGES


@<TRIPOS>ATOM
   1 C1            -0.0167     1.3824     0.0096 C.ar    
   2 C2             0.0021    -0.0041     0.0020 C.ar    
   3 C3             1.2046    -0.6815    -0.0131 C.ar    
   4 C4             2.4062     0.0180    -0.0204 C.ar    
   5 C5             2.4068     1.3992    -0.0129 C.ar    
   6 C6             1.1923     2.0960     0.0019 C.ar    
   7 C7             1.1833     3.5639     0.0094 C.2     
   8 O8             0.1292     4.1639     0.0223 O.2     
   9 C9             2.4837     4.3254     0.0011 C.3     
  10 C10            2.1950     5.8279     0.0114 C.3     
  11 C11            3.4954     6.5894     0.0030 C.ar    
  12 C12            4.1050     6.9272     1.1972 C.ar    
  13 C13            4.0797     6.9442    -1.1988 C.ar    
  14 C14            5.2720     7.6419    -1.2091 C.ar    
  15 C15            5.8828     7.9869    -0.0122 C.ar    
  16 C16            5.2971     7.6252     1.1923 C.ar    
  17 O17            7.0559     8.6729    -0.0198 O.3     
  18 O18           -1.1994     2.0471     0.0188 O.3     
  19 O19            3.5849    -0.6601    -0.0344 O.3     
  20 H20           -0.9266    -0.5553     0.0083 H       
  21 H21            1.2122    -1.7614    -0.0190 H       
  22 H22            3.3415     1.9403    -0.0182 H       
  23 H23            3.0652     4.0611     0.8843 H       
  24 H24            3.0486     4.0701    -0.8955 H       
  25 H25            1.6135     6.0921    -0.8719 H       
  26 H26            1.6302     6.0832     0.9080 H       
  27 H27            3.6487     6.6454     2.1346 H       
  28 H28            3.6038     6.6753    -2.1303 H       
  29 H29            5.7284     7.9182    -2.1481 H       
  30 H30            5.7727     7.8892     2.1253 H       
  31 H31            6.9496     9.6340    -0.0142 H       
  32 H32           -1.5381     2.2350     0.9049 H       
  33 H33            3.9179    -0.8517    -0.9218 H       
@<TRIPOS>BOND
   1    1    2 ar
   2    1    6 ar
   3    1   18 1
   4    2    3 ar
   5    2   20 1
   6    3    4 ar
   7    3   21 1
   8    4    5 ar
   9    4   19 1
  10    5    6 ar
  11    5   22 1
  12    6    7 1
  13    7    8 2
  14    7    9 1
  15    9   10 1
  16    9   23 1
  17    9   24 1
  18   10   11 1
  19   10   25 1
  20   10   26 1
  21   11   13 ar
  22   11   12 ar
  23   12   16 ar
  24   12   27 1
  25   13   14 ar
  26   13   28 1
  27   14   15 ar
  28   14   29 1
  29   15   16 ar
  30   15   17 1
  31   16   30 1
  32   17   31 1
  33   18   32 1
  34   19   33 1

#	End of record

