#	Name: ASD01208999
#	Creating user name:	WinNT
#	Creation time:	15. 06. 2019 19:10

#	Modifying user name:	WinNT
#	Modification time:	15. 06. 2019 19:10

#	Program:	/corina/corina34_cracker 3.40 0067  02.08.2006

@<TRIPOS>MOLECULE
ASD01208999
  55   59    0    0    0
SMALL
NO_CHARGES


@<TRIPOS>ATOM
   1 C1            -2.0200     1.5037    -1.3071 C.3     
   2 C2            -2.1601    -0.0199    -1.2332 C.3     
   3 C3            -1.5615    -0.5259     0.0807 C.3     
   4 C4            -1.5372    -2.0557     0.0744 C.3     
   5 C5            -0.7772    -2.5510     1.2778 C.2     
   6 N6             0.5520    -2.3465     1.3664 N.am    
   7 C7             1.2715    -2.8979     2.4208 C.2     
   8 N8            -2.9097    -2.5660     0.1196 N.pl3   
   9 C9            -3.4283    -3.5271    -0.7085 C.ar    
  10 C10           -4.7697    -3.7148    -0.3221 C.ar    
  11 C11           -5.0073    -2.7995     0.7899 C.2     
  12 N12           -3.8991    -2.1550     1.0187 N.2     
  13 O13           -1.3617    -3.1336     2.1666 O.2     
  14 S14            2.9555    -2.7196     2.6558 S.3     
  15 C15            2.8660    -3.6983     4.1180 C.2     
  16 C16            1.5940    -4.0649     4.2934 C.2     
  17 N17            0.7620    -3.6167     3.3709 N.2     
  18 Cl18           4.1987    -4.1141     5.1498 Cl      
  19 C19           -3.6456    -0.3886    -1.2950 C.3     
  20 C20           -4.2540     0.1895    -2.5754 C.3     
  21 O21           -4.0621     1.6054    -2.5953 O.3     
  22 C22           -2.6912     2.0086    -2.5870 C.3     
  23 C23           -2.9080    -4.2746    -1.7616 C.ar    
  24 C24           -3.7093    -5.1878    -2.4127 C.ar    
  25 C25           -5.0341    -5.3694    -2.0276 C.ar    
  26 C26           -5.5635    -4.6478    -0.9978 C.ar    
  27 C27           -7.1433    -5.5689     1.1577 C.3     
  28 C28           -8.4510    -6.0039     1.8222 C.3     
  29 C29           -7.4524    -7.0566     1.3369 C.3     
  30 F30           -3.2040    -5.9129    -3.4345 F       
  31 S31           -7.2425    -4.8892    -0.5212 S.o2    
  32 O32           -7.7917    -3.5788    -0.4970 O.2     
  33 O33           -7.7268    -5.8699    -1.4284 O.2     
  34 H34           -2.5017     1.9562    -0.4403 H       
  35 H35           -0.9636     1.7721    -1.3194 H       
  36 H36           -1.6348    -0.4755    -2.0726 H       
  37 H37           -0.5450    -0.1468     0.1866 H       
  38 H38           -2.1687    -0.1756     0.9154 H       
  39 H39           -1.0484    -2.4076    -0.8341 H       
  40 H40            1.0068    -1.8147     0.6946 H       
  41 H41           -5.9353    -2.6813     1.3297 H       
  42 H42            1.2712    -4.6748     5.1243 H       
  43 H43           -3.7518    -1.4734    -1.2988 H       
  44 H44           -4.1601     0.0257    -0.4280 H       
  45 H45           -3.7664    -0.2556    -3.4427 H       
  46 H46           -5.3206    -0.0333    -2.6038 H       
  47 H47           -2.6320     3.0964    -2.6237 H       
  48 H48           -2.1831     1.5873    -3.4544 H       
  49 H49           -1.8811    -4.1393    -2.0673 H       
  50 H50           -5.6489    -6.0885    -2.5485 H       
  51 H51           -6.3747    -5.1337     1.7964 H       
  52 H52           -8.5426    -5.8552     2.8981 H       
  53 H53           -9.3710    -5.8816     1.2505 H       
  54 H54           -7.7155    -7.6269     0.4461 H       
  55 H55           -6.8871    -7.6005     2.0936 H       
@<TRIPOS>BOND
   1    1    2 1
   2    1   22 1
   3    1   34 1
   4    1   35 1
   5    2    3 1
   6    2   19 1
   7    2   36 1
   8    3    4 1
   9    3   37 1
  10    3   38 1
  11    4    5 1
  12    4    8 1
  13    4   39 1
  14    5    6 am
  15    5   13 2
  16    6    7 1
  17    6   40 1
  18    7   14 1
  19    7   17 2
  20    8    9 1
  21    8   12 1
  22    9   10 ar
  23    9   23 ar
  24   10   11 1
  25   10   26 ar
  26   11   12 2
  27   11   41 1
  28   14   15 1
  29   15   16 2
  30   15   18 1
  31   16   17 1
  32   16   42 1
  33   19   20 1
  34   19   43 1
  35   19   44 1
  36   20   21 1
  37   20   45 1
  38   20   46 1
  39   21   22 1
  40   22   47 1
  41   22   48 1
  42   23   24 ar
  43   23   49 1
  44   24   25 ar
  45   24   30 1
  46   25   26 ar
  47   25   50 1
  48   26   31 1
  49   27   28 1
  50   27   31 1
  51   27   29 1
  52   27   51 1
  53   28   29 1
  54   28   52 1
  55   28   53 1
  56   29   54 1
  57   29   55 1
  58   31   32 2
  59   31   33 2

#	End of record

