#	Name: ASD01913936
#	Creating user name:	WinNT
#	Creation time:	15. 06. 2019 20:02

#	Modifying user name:	WinNT
#	Modification time:	15. 06. 2019 20:02

#	Program:	/corina/corina34_cracker 3.40 0067  02.08.2006

@<TRIPOS>MOLECULE
ASD01913936
  41   43    0    0    0
SMALL
NO_CHARGES


@<TRIPOS>ATOM
   1 C1             0.0413     1.4282     0.0706 C.ar    
   2 C2             0.0605    -0.0036     0.0617 C.1     
   3 C3             0.0763    -1.1775     0.0544 C.1     
   4 C4             0.0955    -2.6094     0.0455 C.ar    
   5 N5             0.1549    -3.2837     1.1941 N.ar    
   6 C6             0.1297    -5.2904    -0.0270 C.ar    
   7 N7             0.0643    -4.6221    -1.1723 N.ar    
   8 C8             0.0464    -3.3030    -1.1674 C.ar    
   9 C9             0.1725    -4.6016     1.1831 C.ar    
  10 C10            0.0903     2.1345     1.2804 C.ar    
  11 C11            0.0007     4.1521     0.0062 C.ar    
  12 N12            0.1480    -6.6834    -0.0351 N.am    
  13 C13           -0.0208     2.1456    -1.1267 C.ar    
  14 C14            0.0690     3.5166     1.2335 C.ar    
  15 N15           -0.0384     3.4623    -1.1176 N.ar    
  16 C16           -1.0216    -7.3239    -0.0209 C.2     
  17 C17           -1.1471    -8.8198     0.0212 C.3     
  18 C18            0.1781    -9.4655    -0.3908 C.3     
  19 C19            1.3088    -8.8008     0.4036 C.3     
  20 C20            1.4442    -7.3493    -0.0644 C.3     
  21 C21            0.1406   -10.9629    -0.0788 C.3     
  22 C22            0.4092    -9.2565    -1.8888 C.3     
  23 O23           -2.0382    -6.6630    -0.0429 O.2     
  24 H24           -0.0066    -2.7595    -2.0992 H       
  25 H25            0.2206    -5.1482     2.1134 H       
  26 H26            0.1429     1.6129     2.2247 H       
  27 H27           -0.0164     5.2313    -0.0325 H       
  28 H28           -0.0541     1.6160    -2.0674 H       
  29 H29            0.1001     4.0939     2.1457 H       
  30 H30           -1.4034    -9.1333     1.0332 H       
  31 H31           -1.9329    -9.1366    -0.6646 H       
  32 H32            1.0718    -8.8253     1.4673 H       
  33 H33            2.2438    -9.3310     0.2226 H       
  34 H34            1.8414    -7.3336    -1.0793 H       
  35 H35            2.1311    -6.8204     0.5962 H       
  36 H36           -0.6756   -11.4287    -0.6309 H       
  37 H37            1.0856   -11.4192    -0.3734 H       
  38 H38           -0.0150   -11.1074     0.9904 H       
  39 H39            0.4445    -8.1888    -2.1055 H       
  40 H40            1.3535    -9.7174    -2.1785 H       
  41 H41           -0.4057    -9.7143    -2.4495 H       
@<TRIPOS>BOND
   1    1    2 1
   2    1   13 ar
   3    1   10 ar
   4    2    3 3
   5    3    4 1
   6    4    5 ar
   7    4    8 ar
   8    5    9 ar
   9    6    7 ar
  10    6   12 1
  11    6    9 ar
  12    7    8 ar
  13    8   24 1
  14    9   25 1
  15   10   14 ar
  16   10   26 1
  17   11   14 ar
  18   11   15 ar
  19   11   27 1
  20   12   16 am
  21   12   20 1
  22   13   15 ar
  23   13   28 1
  24   14   29 1
  25   16   17 1
  26   16   23 2
  27   17   18 1
  28   17   30 1
  29   17   31 1
  30   18   19 1
  31   18   21 1
  32   18   22 1
  33   19   20 1
  34   19   32 1
  35   19   33 1
  36   20   34 1
  37   20   35 1
  38   21   36 1
  39   21   37 1
  40   21   38 1
  41   22   39 1
  42   22   40 1
  43   22   41 1

#	End of record

