#	Name: ASD02039069
#	Creating user name:	WinNT
#	Creation time:	15. 06. 2019 20:17

#	Modifying user name:	WinNT
#	Modification time:	15. 06. 2019 20:17

#	Program:	/corina/corina34_cracker 3.40 0067  02.08.2006

@<TRIPOS>MOLECULE
ASD02039069
  42   45    0    0    0
SMALL
NO_CHARGES


@<TRIPOS>ATOM
   1 N1             0.0234     1.2844    -0.3601 N.2     
   2 N2             0.0398    -0.0020    -0.3611 N.2     
   3 C3             1.2243     1.7332    -0.0872 C.2     
   4 O4             2.0204     0.6621     0.0886 O.3     
   5 C5             1.2411    -0.4221    -0.0913 C.2     
   6 N6             1.6034     3.0606     0.0025 N.pl3   
   7 C7             0.6399     4.0709    -0.0888 C.ar    
   8 C8             1.6810    -1.8604     0.0032 C.3     
   9 O9             2.1172    -2.3105    -1.2809 O.3     
  10 C10            2.5500    -3.5963    -1.3701 C.ar    
  11 C11            2.9848    -4.0922    -2.5830 C.ar    
  12 C12            2.5580    -4.4049    -0.2363 C.ar    
  13 C13            2.9938    -5.7097    -0.3077 C.ar    
  14 C14            3.4310    -6.2308    -1.5206 C.ar    
  15 C15            3.4291    -5.4155    -2.6683 C.ar    
  16 C16           -0.6623     3.8296     0.3289 C.ar    
  17 C17            0.9858     5.3185    -0.5919 C.ar    
  18 C18            0.0334     6.3144    -0.6806 C.ar    
  19 C19           -1.2660     6.0699    -0.2684 C.ar    
  20 C20           -1.6118     4.8287     0.2383 C.ar    
  21 N21            3.8710    -7.5357    -1.6129 N.am    
  22 C22            4.2937    -8.0419    -2.7845 C.2     
  23 C23            4.3070    -7.2675    -3.9643 C.2     
  24 C24            3.8916    -5.9771    -3.9389 C.2     
  25 O25            4.6755    -9.1986    -2.8288 O.2     
  26 C26           -3.0266     4.5658     0.6860 C.3     
  27 F27           -2.1963     7.0457    -0.3561 F       
  28 H28            2.5371     3.2909     0.1287 H       
  29 H29            2.5020    -1.9431     0.7155 H       
  30 H30            0.8454    -2.4746     0.3390 H       
  31 H31            2.9814    -3.4624    -3.4604 H       
  32 H32            2.2195    -4.0050     0.7081 H       
  33 H33            2.9964    -6.3277     0.5781 H       
  34 H34           -0.9326     2.8615     0.7239 H       
  35 H35            1.9991     5.5097    -0.9131 H       
  36 H36            0.3020     7.2847    -1.0714 H       
  37 H37            3.8757    -8.0957    -0.8209 H       
  38 H38            4.6529    -7.7033    -4.8900 H       
  39 H39            3.8983    -5.3775    -4.8372 H       
  40 H40           -3.6078     4.1828    -0.1528 H       
  41 H41           -3.0223     3.8307     1.4908 H       
  42 H42           -3.4729     5.4936     1.0438 H       
@<TRIPOS>BOND
   1    1    2 1
   2    1    3 2
   3    2    5 2
   4    3    4 1
   5    3    6 1
   6    4    5 1
   7    5    8 1
   8    6    7 1
   9    6   28 1
  10    7   16 ar
  11    7   17 ar
  12    8    9 1
  13    8   29 1
  14    8   30 1
  15    9   10 1
  16   10   11 ar
  17   10   12 ar
  18   11   15 ar
  19   11   31 1
  20   12   13 ar
  21   12   32 1
  22   13   14 ar
  23   13   33 1
  24   14   15 ar
  25   14   21 1
  26   15   24 1
  27   16   20 ar
  28   16   34 1
  29   17   18 ar
  30   17   35 1
  31   18   19 ar
  32   18   36 1
  33   19   20 ar
  34   19   27 1
  35   20   26 1
  36   21   22 am
  37   21   37 1
  38   22   23 1
  39   22   25 2
  40   23   24 2
  41   23   38 1
  42   24   39 1
  43   26   40 1
  44   26   41 1
  45   26   42 1

#	End of record

