#	Name: ASD01882786
#	Creating user name:	WinNT
#	Creation time:	15. 06. 2019 19:45

#	Modifying user name:	WinNT
#	Modification time:	15. 06. 2019 19:45

#	Program:	/corina/corina34_cracker 3.40 0067  02.08.2006

@<TRIPOS>MOLECULE
ASD01882786
  57   61    0    0    0
SMALL
NO_CHARGES


@<TRIPOS>ATOM
   1 F1             0.0021    -0.0041     0.0020 F       
   2 S2            -0.0198     1.6058     0.0109 S.o2    
   3 C3             2.2995     2.3694    -1.2072 C.ar    
   4 C4             1.6560     2.1502    -0.0022 C.ar    
   5 C5             2.3223     2.3570     1.1926 C.ar    
   6 C6             3.6342     2.7836     1.1894 C.ar    
   7 C7             4.2895     3.0063    -0.0228 C.ar    
   8 C8             3.6116     2.7953    -1.2245 C.ar    
   9 O9            -0.5815     2.0063    -1.2314 O.2     
  10 O10           -0.5576     1.9929     1.2679 O.2     
  11 C11            5.6952     3.4640    -0.0337 C.2     
  12 O12            6.2829     3.6473     1.0144 O.2     
  13 N13            6.3251     3.6781    -1.2058 N.am    
  14 C14            9.0366     4.5919    -5.2580 C.ar    
  15 C15            8.4471     5.6632    -4.5877 C.ar    
  16 C16            8.0234     5.5086    -3.2836 C.ar    
  17 C17            8.1825     4.2938    -2.6412 C.ar    
  18 C18            8.7666     3.2273    -3.3010 C.ar    
  19 C19            9.1894     3.3683    -4.6069 C.ar    
  20 N20           10.2991     5.0536    -9.2802 N.pl3   
  21 C21           11.2393     4.8165    -8.3067 C.2     
  22 C22           10.8368     4.6614    -6.9692 C.2     
  23 C23            9.4933     4.7513    -6.6589 C.2     
  24 C24            8.5570     4.9968    -7.6925 C.2     
  25 C25            8.9743     5.1457    -8.9637 C.2     
  26 C26           10.9910     5.1548   -10.4482 C.2     
  27 N27           12.2584     4.9867   -10.1714 N.2     
  28 N28           12.4175     4.7866    -8.9103 N.2     
  29 C29           10.4038     5.4129   -11.8119 C.3     
  30 C30           10.3476     6.9206   -12.0659 C.3     
  31 C31            9.8888     7.3874   -13.4488 C.3     
  32 C32            8.9670     7.5568   -12.2394 C.3     
  33 C33            7.7181     4.1316    -1.2167 C.3     
  34 C34           11.8553     4.4004    -5.8895 C.3     
  35 F35           12.1236     3.0290    -5.8232 F       
  36 F36           13.0348     5.0927    -6.1838 F       
  37 F37           11.3528     4.8373    -4.6590 F       
  38 H38            1.7751     2.2022    -2.1364 H       
  39 H39            1.8141     2.1844     2.1298 H       
  40 H40            4.1530     2.9454     2.1227 H       
  41 H41            4.1130     2.9657    -2.1658 H       
  42 H42            5.8561     3.5318    -2.0423 H       
  43 H43            8.3227     6.6121    -5.0882 H       
  44 H44            7.5667     6.3376    -2.7635 H       
  45 H45            8.8881     2.2813    -2.7943 H       
  46 H46            9.6449     2.5350    -5.1212 H       
  47 H47            7.5048     5.0683    -7.4597 H       
  48 H48            8.2513     5.3329    -9.7439 H       
  49 H49           11.0264     4.9395   -12.5711 H       
  50 H50            9.3966     4.9989   -11.8580 H       
  51 H51           11.1146     7.5107   -11.5644 H       
  52 H52           10.3536     8.2848   -13.8570 H       
  53 H53            9.6269     6.6204   -14.1777 H       
  54 H54            8.0988     6.9012   -12.1726 H       
  55 H55            8.8255     8.5657   -11.8519 H       
  56 H56            7.7928     5.0880    -0.6991 H       
  57 H57            8.3438     3.3955    -0.7121 H       
@<TRIPOS>BOND
   1    1    2 1
   2    2    4 1
   3    2    9 2
   4    2   10 2
   5    3    4 ar
   6    3    8 ar
   7    3   38 1
   8    4    5 ar
   9    5    6 ar
  10    5   39 1
  11    6    7 ar
  12    6   40 1
  13    7    8 ar
  14    7   11 1
  15    8   41 1
  16   11   12 2
  17   11   13 am
  18   13   33 1
  19   13   42 1
  20   14   15 ar
  21   14   23 1
  22   14   19 ar
  23   15   16 ar
  24   15   43 1
  25   16   17 ar
  26   16   44 1
  27   17   18 ar
  28   17   33 1
  29   18   19 ar
  30   18   45 1
  31   19   46 1
  32   20   26 1
  33   20   21 1
  34   20   25 1
  35   21   22 1
  36   21   28 2
  37   22   34 1
  38   22   23 2
  39   23   24 1
  40   24   25 2
  41   24   47 1
  42   25   48 1
  43   26   27 2
  44   26   29 1
  45   27   28 1
  46   29   30 1
  47   29   49 1
  48   29   50 1
  49   30   31 1
  50   30   32 1
  51   30   51 1
  52   31   32 1
  53   31   52 1
  54   31   53 1
  55   32   54 1
  56   32   55 1
  57   33   56 1
  58   33   57 1
  59   34   35 1
  60   34   36 1
  61   34   37 1

#	End of record

