#	Name: ASD02562067
#	Creating user name:	WinNT
#	Creation time:	15. 06. 2019 20:25

#	Modifying user name:	WinNT
#	Modification time:	15. 06. 2019 20:25

#	Program:	/corina/corina34_cracker 3.40 0067  02.08.2006

@<TRIPOS>MOLECULE
ASD02562067
  46   49    0    0    0
SMALL
NO_CHARGES


@<TRIPOS>ATOM
   1 C1            -0.1184     0.9607    -1.0869 C.2     
   2 C2            -0.2368    -0.4404    -1.1171 C.2     
   3 C3            -1.4091    -1.0317    -0.8119 C.2     
   4 N4            -2.5005    -0.2795    -0.4690 N.pl3   
   5 C5            -2.4148     1.0935    -0.4309 C.2     
   6 C6            -1.1905     1.7222    -0.7427 C.2     
   7 C7            -3.7794    -0.6172    -0.1226 C.2     
   8 C8            -4.4515     0.5621     0.1211 C.2     
   9 N9            -3.5928     1.5794    -0.0756 N.2     
  10 N10           -4.3038    -1.9071    -0.0333 N.3     
  11 C11           -5.8708     0.6872     0.5275 C.ar    
  12 C12           -3.2475    -2.9165    -0.1861 C.3     
  13 C13           -3.6891    -4.2215     0.4794 C.3     
  14 C14           -2.5890    -5.2729     0.3203 C.3     
  15 C15           -2.3317    -5.5206    -1.1674 C.3     
  16 C16           -1.8901    -4.2157    -1.8329 C.3     
  17 C17           -2.9902    -3.1643    -1.6738 C.3     
  18 C18           -6.8577    -0.0315    -0.1458 C.ar    
  19 C19           -8.1781     0.0887     0.2376 C.ar    
  20 C20           -8.5240     0.9205     1.2873 C.ar    
  21 C21           -7.5500     1.6371     1.9596 C.ar    
  22 C22           -6.2248     1.5207     1.5898 C.ar    
  23 Cl23          -5.0036     2.4203     2.4341 Cl      
  24 C24            1.1950     1.6156    -1.4293 C.3     
  25 H25            0.6160    -1.0458    -1.3866 H       
  26 H26           -1.4882    -2.1084    -0.8384 H       
  27 H27           -1.1084     2.7987    -0.7165 H       
  28 H28           -4.8035    -2.0350     0.8339 H       
  29 H29           -2.3325    -2.5593     0.2864 H       
  30 H30           -3.8725    -4.0450     1.5393 H       
  31 H31           -4.6042    -4.5787     0.0070 H       
  32 H32           -1.6740    -4.9156     0.7927 H       
  33 H33           -2.9036    -6.2026     0.7944 H       
  34 H34           -1.5480    -6.2697    -1.2808 H       
  35 H35           -3.2467    -5.8779    -1.6398 H       
  36 H36           -0.9750    -3.8584    -1.3605 H       
  37 H37           -1.7068    -4.3922    -2.8928 H       
  38 H38           -3.9052    -3.5215    -2.1462 H       
  39 H39           -2.6756    -2.2346    -2.1479 H       
  40 H40           -6.5895    -0.6809    -0.9660 H       
  41 H41           -8.9432    -0.4678    -0.2835 H       
  42 H42           -9.5587     1.0112     1.5830 H       
  43 H43           -7.8263     2.2855     2.7780 H       
  44 H44            1.9307     0.8491    -1.6726 H       
  45 H45            1.0597     2.2747    -2.2869 H       
  46 H46            1.5444     2.1969    -0.5760 H       
@<TRIPOS>BOND
   1    1    2 1
   2    1   24 1
   3    1    6 2
   4    2    3 2
   5    2   25 1
   6    3    4 1
   7    3   26 1
   8    4    5 1
   9    4    7 1
  10    5    6 1
  11    5    9 2
  12    6   27 1
  13    7    8 2
  14    7   10 1
  15    8    9 1
  16    8   11 1
  17   10   12 1
  18   10   28 1
  19   11   18 ar
  20   11   22 ar
  21   12   13 1
  22   12   17 1
  23   12   29 1
  24   13   14 1
  25   13   30 1
  26   13   31 1
  27   14   15 1
  28   14   32 1
  29   14   33 1
  30   15   16 1
  31   15   34 1
  32   15   35 1
  33   16   17 1
  34   16   36 1
  35   16   37 1
  36   17   38 1
  37   17   39 1
  38   18   19 ar
  39   18   40 1
  40   19   20 ar
  41   19   41 1
  42   20   21 ar
  43   20   42 1
  44   21   22 ar
  45   21   43 1
  46   22   23 1
  47   24   44 1
  48   24   45 1
  49   24   46 1

#	End of record

