#	Name: ASD01885026
#	Creating user name:	WinNT
#	Creation time:	15. 06. 2019 19:49

#	Modifying user name:	WinNT
#	Modification time:	15. 06. 2019 19:49

#	Program:	/corina/corina34_cracker 3.40 0067  02.08.2006

@<TRIPOS>MOLECULE
ASD01885026
  48   51    0    0    0
SMALL
NO_CHARGES


@<TRIPOS>ATOM
   1 C1            -0.0170     1.4039     0.0098 C.2     
   2 C2            -0.8676     1.4188    -1.1124 C.2     
   3 C3            -2.0216     0.7254    -1.1197 C.2     
   4 N4            -2.4193    -0.0190    -0.0491 N.pl3   
   5 C5            -1.6470    -0.0865     1.0845 C.2     
   6 C6            -0.3820     0.6487     1.1311 C.2     
   7 C7             0.4533     0.6048     2.2934 C.1     
   8 C8            -3.5116    -0.7977     0.2028 C.2     
   9 N9            -3.3764    -1.2838     1.4078 N.2     
  10 N10           -2.2785    -0.8694     1.9362 N.2     
  11 N11            1.1650     2.1206     0.0023 N.pl3   
  12 C12            2.4634     1.4361     0.0963 C.3     
  13 C13            3.3601     1.9349    -1.0418 C.3     
  14 N14            3.4269     3.4018    -1.0013 N.3     
  15 C15            2.1057     4.0019    -1.2301 C.3     
  16 C16            1.1578     3.5874    -0.1059 C.3     
  17 C17            4.3622     3.8859    -1.9188 C.ar    
  18 C18            4.5779     5.2530    -2.0374 C.ar    
  19 C19            5.5038     5.7282    -2.9452 C.ar    
  20 C20            6.2158     4.8448    -3.7357 C.ar    
  21 C21            6.0036     3.4832    -3.6202 C.ar    
  22 C22            5.0830     3.0010    -2.7106 C.ar    
  23 C23           -4.6626    -1.0500    -0.7366 C.3     
  24 C24           -4.3605    -2.2802    -1.5946 C.3     
  25 N25            1.1159     0.5700     3.2155 N.1     
  26 C26            7.2249     5.3670    -4.7256 C.3     
  27 F27            8.4774     5.4608    -4.1092 F       
  28 F28            7.3055     4.4927    -5.8147 F       
  29 F29            6.8288     6.6324    -5.1717 F       
  30 F30           -4.1816    -3.3936    -0.7667 F       
  31 F31           -5.4290    -2.5144    -2.4667 F       
  32 F32           -3.1945    -2.0575    -2.3350 F       
  33 H33           -0.5897     1.9964    -1.9816 H       
  34 H34           -2.6496     0.7601    -1.9977 H       
  35 H35            2.9286     1.6634     1.0555 H       
  36 H36            2.3176     0.3599     0.0027 H       
  37 H37            4.3618     1.5218    -0.9234 H       
  38 H38            2.9455     1.6160    -1.9981 H       
  39 H39            2.1977     5.0879    -1.2482 H       
  40 H40            1.7085     3.6542    -2.1837 H       
  41 H41            0.1493     3.9346    -0.3305 H       
  42 H42            1.4956     4.0197     0.8360 H       
  43 H43            4.0219     5.9436    -1.4206 H       
  44 H44            5.6717     6.7910    -3.0382 H       
  45 H45            6.5613     2.7959    -4.2390 H       
  46 H46            4.9179     1.9374    -2.6206 H       
  47 H47           -5.5710    -1.2235    -0.1598 H       
  48 H48           -4.8020    -0.1825    -1.3817 H       
@<TRIPOS>BOND
   1    1    2 1
   2    1   11 1
   3    1    6 2
   4    2    3 2
   5    2   33 1
   6    3    4 1
   7    3   34 1
   8    4    5 1
   9    4    8 1
  10    5    6 1
  11    5   10 2
  12    6    7 1
  13    7   25 3
  14    8    9 2
  15    8   23 1
  16    9   10 1
  17   11   12 1
  18   11   16 1
  19   12   13 1
  20   12   35 1
  21   12   36 1
  22   13   14 1
  23   13   37 1
  24   13   38 1
  25   14   15 1
  26   14   17 1
  27   15   16 1
  28   15   39 1
  29   15   40 1
  30   16   41 1
  31   16   42 1
  32   17   18 ar
  33   17   22 ar
  34   18   19 ar
  35   18   43 1
  36   19   20 ar
  37   19   44 1
  38   20   21 ar
  39   20   26 1
  40   21   22 ar
  41   21   45 1
  42   22   46 1
  43   23   24 1
  44   23   47 1
  45   23   48 1
  46   24   30 1
  47   24   31 1
  48   24   32 1
  49   26   27 1
  50   26   28 1
  51   26   29 1

#	End of record

