#	Name: ASD01915611
#	Creating user name:	WinNT
#	Creation time:	15. 06. 2019 20:05

#	Modifying user name:	WinNT
#	Modification time:	15. 06. 2019 20:05

#	Program:	/corina/corina34_cracker 3.40 0067  02.08.2006

@<TRIPOS>MOLECULE
ASD01915611
  43   46    0    0    0
SMALL
NO_CHARGES


@<TRIPOS>ATOM
   1 C1            -0.0043     1.4627     0.2163 C.2     
   2 N2             0.0612     0.1092    -0.0287 N.pl3   
   3 C3            -1.1516    -0.6751    -0.2907 C.3     
   4 C4            -2.3299    -0.0460     0.4509 C.3     
   5 N5            -2.4043     1.3988     0.2636 N.am    
   6 C6            -1.2915     2.1720     0.2663 C.2     
   7 C7             1.2786     1.8999     0.3912 C.2     
   8 C8             2.0744     0.7551     0.2506 C.2     
   9 N9             1.2809    -0.2623     0.0089 N.2     
  10 C10            3.5767     0.7014     0.3577 C.3     
  11 O11            4.0819     2.0104     0.6285 O.3     
  12 C12            5.4290     2.1377     0.7557 C.ar    
  13 O13           -1.3539     3.3859     0.3082 O.2     
  14 C14            5.9878     3.3799     1.0188 C.ar    
  15 C15            6.2472     1.0246     0.6282 C.ar    
  16 C16            7.6162     1.1566     0.7578 C.ar    
  17 C17            8.1711     2.3967     1.0144 C.ar    
  18 C18            7.3574     3.5066     1.1476 C.ar    
  19 C19           -3.6482     1.9975     0.0773 C.ar    
  20 C20           -4.8118     1.2698     0.3023 C.ar    
  21 N21           -5.9911     1.8374     0.1257 N.ar    
  22 C22           -6.0693     3.0967    -0.2644 C.ar    
  23 C23           -4.9099     3.8292    -0.4910 C.ar    
  24 N24           -3.7244     3.2647    -0.3099 N.ar    
  25 O25           -4.9917     5.1227    -0.8922 O.3     
  26 C26           -3.7599     5.8147    -1.1061 C.3     
  27 H27           -1.3568    -0.6810    -1.3612 H       
  28 H28           -1.0062    -1.6975     0.0581 H       
  29 H29           -3.2544    -0.4961     0.0893 H       
  30 H30           -2.2300    -0.2585     1.5153 H       
  31 H31            1.6076     2.9085     0.5936 H       
  32 H32            3.8594     0.0282     1.1671 H       
  33 H33            3.9951     0.3374    -0.5806 H       
  34 H34            5.3526     4.2472     1.1226 H       
  35 H35            5.8142     0.0556     0.4281 H       
  36 H36            8.2535     0.2903     0.6590 H       
  37 H37            9.2416     2.4979     1.1154 H       
  38 H38            7.7932     4.4743     1.3476 H       
  39 H39           -4.7510     0.2398     0.6214 H       
  40 H40           -7.0353     3.5578    -0.4079 H       
  41 H41           -3.9676     6.8367    -1.4232 H       
  42 H42           -3.1867     5.8313    -0.1792 H       
  43 H43           -3.1858     5.3041    -1.8792 H       
@<TRIPOS>BOND
   1    1    2 1
   2    1    7 2
   3    1    6 1
   4    2    3 1
   5    2    9 1
   6    3    4 1
   7    3   27 1
   8    3   28 1
   9    4    5 1
  10    4   29 1
  11    4   30 1
  12    5    6 am
  13    5   19 1
  14    6   13 2
  15    7    8 1
  16    7   31 1
  17    8    9 2
  18    8   10 1
  19   10   11 1
  20   10   32 1
  21   10   33 1
  22   11   12 1
  23   12   14 ar
  24   12   15 ar
  25   14   18 ar
  26   14   34 1
  27   15   16 ar
  28   15   35 1
  29   16   17 ar
  30   16   36 1
  31   17   18 ar
  32   17   37 1
  33   18   38 1
  34   19   20 ar
  35   19   24 ar
  36   20   21 ar
  37   20   39 1
  38   21   22 ar
  39   22   23 ar
  40   22   40 1
  41   23   24 ar
  42   23   25 1
  43   25   26 1
  44   26   41 1
  45   26   42 1
  46   26   43 1

#	End of record

