#	Name: ASD00170502
#	Creating user name:	WinNT
#	Creation time:	15. 06. 2019 18:32

#	Modifying user name:	WinNT
#	Modification time:	15. 06. 2019 18:32

#	Program:	/corina/corina34_cracker 3.40 0067  02.08.2006

@<TRIPOS>MOLECULE
ASD00170502
  51   53    0    0    0
SMALL
NO_CHARGES


@<TRIPOS>ATOM
   1 C1            -3.9280    -3.2718    -3.5671 C.3     
   2 C2            -2.7861    -3.5379    -2.6204 C.ar    
   3 C3            -1.5165    -3.0809    -2.9270 C.ar    
   4 C4            -0.4668    -3.3211    -2.0647 C.ar    
   5 C5            -0.6877    -4.0267    -0.8808 C.ar    
   6 C6            -1.9708    -4.4849    -0.5776 C.ar    
   7 C7            -3.0129    -4.2331    -1.4458 C.ar    
   8 C8             0.4333    -4.2883     0.0482 C.2     
   9 O9             1.5670    -3.9691    -0.2606 O.2     
  10 C10            0.1797    -4.9307     1.3384 C.2     
  11 C11            0.0107    -4.2356     2.5162 C.2     
  12 N12            0.0577    -2.8628     2.6282 N.pl3   
  13 S13           -0.2651    -5.3035     3.8152 S.3     
  14 C14           -0.1561    -6.7169     2.7816 C.2     
  15 C15            0.0737    -6.3599     1.5119 C.2     
  16 C16            0.2128    -7.3475     0.3822 C.3     
  17 C17            1.6757    -7.7784     0.2587 C.3     
  18 C18            2.1574    -8.3380     1.5987 C.3     
  19 C19            1.8003    -8.8573    -0.8190 C.3     
  20 C20            2.5322    -6.5708    -0.1272 C.3     
  21 C21           -0.3045    -8.1113     3.2478 C.ar    
  22 C22            0.4378    -8.5688     4.3381 C.ar    
  23 C23            0.2941    -9.8716     4.7685 C.ar    
  24 C24           -0.5829   -10.7243     4.1218 C.ar    
  25 C25           -1.3212   -10.2775     3.0403 C.ar    
  26 C26           -1.1918    -8.9754     2.6035 C.ar    
  27 H27           -4.3998    -2.3235    -3.3099 H       
  28 H28           -3.5499    -3.2244    -4.5883 H       
  29 H29           -4.6604    -4.0752    -3.4878 H       
  30 H30           -1.3470    -2.5354    -3.8435 H       
  31 H31            0.5237    -2.9642    -2.3053 H       
  32 H32           -2.1483    -5.0316     0.3368 H       
  33 H33           -4.0070    -4.5833    -1.2103 H       
  34 H34            0.2911    -2.3211     1.8582 H       
  35 H35           -0.1426    -2.4383     3.4771 H       
  36 H36           -0.4073    -8.2208     0.5847 H       
  37 H37           -0.1087    -6.8817    -0.5493 H       
  38 H38            1.5806    -9.2284     1.8491 H       
  39 H39            3.2134    -8.5980     1.5254 H       
  40 H40            2.0214    -7.5864     2.3763 H       
  41 H41            1.4571    -8.4586    -1.7736 H       
  42 H42            2.8425    -9.1642    -0.9070 H       
  43 H43            1.1901    -9.7176    -0.5441 H       
  44 H44            2.4434    -5.8022     0.6406 H       
  45 H45            3.5744    -6.8777    -0.2152 H       
  46 H46            2.1890    -6.1721    -1.0818 H       
  47 H47            1.1232    -7.9044     4.8433 H       
  48 H48            0.8678   -10.2268     5.6118 H       
  49 H49           -0.6913   -11.7434     4.4626 H       
  50 H50           -2.0035   -10.9485     2.5396 H       
  51 H51           -1.7722    -8.6265     1.7623 H       
@<TRIPOS>BOND
   1    1    2 1
   2    1   27 1
   3    1   28 1
   4    1   29 1
   5    2    7 ar
   6    2    3 ar
   7    3    4 ar
   8    3   30 1
   9    4    5 ar
  10    4   31 1
  11    5    6 ar
  12    5    8 1
  13    6    7 ar
  14    6   32 1
  15    7   33 1
  16    8    9 2
  17    8   10 1
  18   10   15 1
  19   10   11 2
  20   11   12 1
  21   11   13 1
  22   12   34 1
  23   12   35 1
  24   13   14 1
  25   14   15 2
  26   14   21 1
  27   15   16 1
  28   16   17 1
  29   16   36 1
  30   16   37 1
  31   17   18 1
  32   17   19 1
  33   17   20 1
  34   18   38 1
  35   18   39 1
  36   18   40 1
  37   19   41 1
  38   19   42 1
  39   19   43 1
  40   20   44 1
  41   20   45 1
  42   20   46 1
  43   21   26 ar
  44   21   22 ar
  45   22   23 ar
  46   22   47 1
  47   23   24 ar
  48   23   48 1
  49   24   25 ar
  50   24   49 1
  51   25   26 ar
  52   25   50 1
  53   26   51 1

#	End of record

