#	Name: ASD09080032
#	Creating user name:	WinNT
#	Creation time:	15. 06. 2019 21:20

#	Modifying user name:	WinNT
#	Modification time:	15. 06. 2019 21:20

#	Program:	/corina/corina34_cracker 3.40 0067  02.08.2006

@<TRIPOS>MOLECULE
ASD09080032
  49   50    0    0    0
SMALL
NO_CHARGES


@<TRIPOS>ATOM
   1 C1            -0.0167     1.3772     0.0096 C.ar    
   2 C2             0.0021    -0.0041     0.0020 C.ar    
   3 C3             1.2087    -0.6820    -0.0127 C.ar    
   4 C4             2.4019     0.0195    -0.0203 C.ar    
   5 C5             2.3936     1.4009    -0.0128 C.ar    
   6 C6             1.1817     2.0879     0.0020 C.ar    
   7 Cl7           -1.4902    -0.8910     0.0115 Cl      
   8 Cl8            3.9112    -0.8380    -0.0387 Cl      
   9 C9             1.1672     3.5718     0.0096 C.ar    
  10 C10           -0.0448     4.2591     0.0244 C.ar    
  11 C11            2.3655     4.2827     0.0078 C.ar    
  12 C12           -0.0524     5.6392     0.0319 C.ar    
  13 C13            1.1401     6.3400     0.0248 C.ar    
  14 C14            2.3461     5.6628     0.0154 C.ar    
  15 C15            1.1254     7.8469     0.0325 C.3     
  16 C16            1.1333     8.3496     1.4776 C.3     
  17 N17           -0.1087     7.9465     2.1417 N.am    
  18 C18            1.2442     9.8756     1.4861 C.3     
  19 C19           -0.1432     7.8124     3.4823 C.2     
  20 C20           -1.4209     7.3977     4.1655 C.3     
  21 O21            0.8539     8.0255     4.1389 O.2     
  22 O22           -1.2051     7.3259     5.5762 O.3     
  23 C23           -2.3609     6.9389     6.3221 C.3     
  24 C24            1.3776    10.3691     2.9282 C.3     
  25 O25            0.1778    10.0732     3.6459 O.3     
  26 C26            1.6097    11.8581     2.9300 C.2     
  27 O27            0.7833    12.5978     3.4093 O.2     
  28 O28            2.7346    12.3627     2.3992 O.3     
  29 H29           -0.9587     1.9054     0.0170 H       
  30 H30            1.2193    -1.7620    -0.0179 H       
  31 H31            3.3252     1.9474    -0.0180 H       
  32 H32           -0.9765     3.7129     0.0296 H       
  33 H33            3.3077     3.7549     0.0009 H       
  34 H34           -0.9912     6.1730     0.0430 H       
  35 H35            3.2743     6.2149     0.0099 H       
  36 H36            2.0071     8.2216    -0.4873 H       
  37 H37            0.2273     8.2041    -0.4715 H       
  38 H38            1.9841     7.9205     2.0068 H       
  39 H39           -0.9062     7.7760     1.6165 H       
  40 H40            2.1217    10.1793     0.9155 H       
  41 H41            0.3505    10.3073     1.0356 H       
  42 H42           -2.2002     8.1298     3.9539 H       
  43 H43           -1.7303     6.4204     3.7950 H       
  44 H44           -2.6898     5.9520     5.9964 H       
  45 H45           -2.1149     6.9079     7.3835 H       
  46 H46           -3.1597     7.6615     6.1553 H       
  47 H47            2.2198     9.8695     3.4068 H       
  48 H48           -0.6142    10.4859     3.2751 H       
  49 H49            2.8389    13.3237     2.4235 H       
@<TRIPOS>BOND
   1    1    2 ar
   2    1    6 ar
   3    1   29 1
   4    2    3 ar
   5    2    7 1
   6    3    4 ar
   7    3   30 1
   8    4    5 ar
   9    4    8 1
  10    5    6 ar
  11    5   31 1
  12    6    9 1
  13    9   10 ar
  14    9   11 ar
  15   10   12 ar
  16   10   32 1
  17   11   14 ar
  18   11   33 1
  19   12   13 ar
  20   12   34 1
  21   13   14 ar
  22   13   15 1
  23   14   35 1
  24   15   16 1
  25   15   36 1
  26   15   37 1
  27   16   17 1
  28   16   18 1
  29   16   38 1
  30   17   19 am
  31   17   39 1
  32   18   24 1
  33   18   40 1
  34   18   41 1
  35   19   20 1
  36   19   21 2
  37   20   22 1
  38   20   42 1
  39   20   43 1
  40   22   23 1
  41   23   44 1
  42   23   45 1
  43   23   46 1
  44   24   25 1
  45   24   26 1
  46   24   47 1
  47   25   48 1
  48   26   27 2
  49   26   28 1
  50   28   49 1

#	End of record

