#	Name: ASD01884262
#	Creating user name:	WinNT
#	Creation time:	15. 06. 2019 19:47

#	Modifying user name:	WinNT
#	Modification time:	15. 06. 2019 19:47

#	Program:	/corina/corina34_cracker 3.40 0067  02.08.2006

@<TRIPOS>MOLECULE
ASD01884262
  60   64    0    0    0
SMALL
NO_CHARGES


@<TRIPOS>ATOM
   1 C1            -0.0169     1.3920     0.0097 C.ar    
   2 C2             0.0021    -0.0041     0.0020 C.ar    
   3 C3            -1.1683    -0.7205     0.0094 C.ar    
   4 C4            -2.4132    -0.0698     0.0252 C.ar    
   5 C5            -2.4165     1.3273     0.0332 C.ar    
   6 C6            -1.2432     2.0548     0.0308 C.ar    
   7 N7            -3.6703    -0.6444     0.0347 N.am    
   8 C8            -4.7412     0.1548     0.0501 C.2     
   9 S9            -4.1177     1.8129     0.0532 S.3     
  10 C10            1.2502     2.1592     0.0017 C.ar    
  11 O11           -5.9092    -0.1874     0.0596 O.2     
  12 C12           -3.8257    -2.1011     0.0275 C.3     
  13 C13            2.2694     1.8523     0.9219 C.ar    
  14 C14            3.4579     2.5841     0.9024 C.ar    
  15 C15            3.6264     3.5999    -0.0149 C.ar    
  16 C16            2.6220     3.9011    -0.9204 C.ar    
  17 C17            1.4423     3.1849    -0.9202 C.ar    
  18 C18           -3.8650    -2.6170     1.4674 C.3     
  19 C19           -3.9017    -4.1469     1.4600 C.3     
  20 C20           -3.9060    -4.6605     2.9033 C.3     
  21 N21           -5.0217    -4.0336     3.6250 N.am    
  22 C22           -5.1325    -2.5686     3.6193 C.3     
  23 C23           -5.1144    -2.0784     2.1680 C.3     
  24 C24           -5.9265    -4.7881     4.2795 C.2     
  25 O25           -6.9440    -4.2003     4.9367 O.3     
  26 O26           -5.8241    -5.9989     4.2764 O.2     
  27 C27           -7.8807    -5.0750     5.6194 C.3     
  28 C28           -8.9427    -4.2453     6.2936 C.ar    
  29 C29          -10.1007    -3.9190     5.6129 C.ar    
  30 C30           -8.7615    -3.8153     7.5948 C.ar    
  31 C31           -9.7357    -3.0542     8.2133 C.ar    
  32 C32          -10.8910    -2.7228     7.5305 C.ar    
  33 C33          -11.0749    -3.1579     6.2313 C.ar    
  34 C34            2.0885     0.7966     1.8723 C.1     
  35 N35            1.9449    -0.0409     2.6263 N.1     
  36 H36            0.9477    -0.5256    -0.0102 H       
  37 H37           -1.1319    -1.7999     0.0025 H       
  38 H38           -1.2753     3.1343     0.0372 H       
  39 H39           -4.7544    -2.3650    -0.4785 H       
  40 H40           -2.9846    -2.5536    -0.4978 H       
  41 H41            4.2450     2.3550     1.6055 H       
  42 H42            4.5470     4.1645    -0.0273 H       
  43 H43            2.7649     4.6990    -1.6341 H       
  44 H44            0.6644     3.4258    -1.6296 H       
  45 H45           -2.9760    -2.2776     1.9990 H       
  46 H46           -4.8032    -4.4868     0.9502 H       
  47 H47           -3.0232    -4.5294     0.9404 H       
  48 H48           -4.0317    -5.7432     2.9054 H       
  49 H49           -2.9649    -4.3989     3.3870 H       
  50 H50           -6.0675    -2.2710     4.0938 H       
  51 H51           -4.2914    -2.1364     4.1614 H       
  52 H52           -5.0991    -0.9886     2.1522 H       
  53 H53           -6.0045    -2.4377     1.6515 H       
  54 H54           -8.3469    -5.7436     4.8957 H       
  55 H55           -7.3494    -5.6630     6.3677 H       
  56 H56          -10.2442    -4.2583     4.5977 H       
  57 H57           -7.8588    -4.0743     8.1283 H       
  58 H58           -9.5944    -2.7189     9.2302 H       
  59 H59          -11.6523    -2.1285     8.0138 H       
  60 H60          -11.9776    -2.8989     5.6978 H       
@<TRIPOS>BOND
   1    1    2 ar
   2    1   10 1
   3    1    6 ar
   4    2    3 ar
   5    2   36 1
   6    3    4 ar
   7    3   37 1
   8    4    5 ar
   9    4    7 1
  10    5    6 ar
  11    5    9 1
  12    6   38 1
  13    7    8 am
  14    7   12 1
  15    8    9 1
  16    8   11 2
  17   10   13 ar
  18   10   17 ar
  19   12   18 1
  20   12   39 1
  21   12   40 1
  22   13   14 ar
  23   13   34 1
  24   14   15 ar
  25   14   41 1
  26   15   16 ar
  27   15   42 1
  28   16   17 ar
  29   16   43 1
  30   17   44 1
  31   18   19 1
  32   18   23 1
  33   18   45 1
  34   19   20 1
  35   19   46 1
  36   19   47 1
  37   20   21 1
  38   20   48 1
  39   20   49 1
  40   21   22 1
  41   21   24 am
  42   22   23 1
  43   22   50 1
  44   22   51 1
  45   23   52 1
  46   23   53 1
  47   24   25 1
  48   24   26 2
  49   25   27 1
  50   27   28 1
  51   27   54 1
  52   27   55 1
  53   28   29 ar
  54   28   30 ar
  55   29   33 ar
  56   29   56 1
  57   30   31 ar
  58   30   57 1
  59   31   32 ar
  60   31   58 1
  61   32   33 ar
  62   32   59 1
  63   33   60 1
  64   34   35 3

#	End of record

