#	Name: ASD03740059
#	Creating user name:	WinNT
#	Creation time:	15. 06. 2019 20:46

#	Modifying user name:	WinNT
#	Modification time:	15. 06. 2019 20:46

#	Program:	/corina/corina34_cracker 3.40 0067  02.08.2006

@<TRIPOS>MOLECULE
ASD03740059
  46   49    0    0    0
SMALL
NO_CHARGES


@<TRIPOS>ATOM
   1 C1            -0.0168     1.3849     0.0097 C.ar    
   2 C2             0.0021    -0.0041     0.0020 C.ar    
   3 C3             1.1850    -0.6877    -0.0125 C.ar    
   4 C4             2.3894     0.0113    -0.0203 C.ar    
   5 C5             2.3718     1.4195    -0.0131 C.ar    
   6 C6             1.1486     2.0963     0.0023 C.ar    
   7 N7             3.7063    -0.3680    -0.0346 N.pl3   
   8 N8             4.5133     0.7743    -0.0364 N.2     
   9 C9             3.7704     1.8474    -0.0241 C.2     
  10 O10            4.2163     3.1315    -0.0222 O.3     
  11 C11            4.1915    -1.7503    -0.0454 C.3     
  12 C12            4.3443    -2.2179    -1.4698 C.ar    
  13 C13            5.6318     3.3268    -0.0344 C.3     
  14 C14            5.9400     4.8254    -0.0302 C.3     
  15 N15            5.4770     5.4170     1.2321 N.3     
  16 C16            5.5401    -2.0436    -2.1497 C.ar    
  17 C17            5.6433    -2.4857    -3.4550 C.ar    
  18 N18            4.6216    -3.0665    -4.0532 N.ar    
  19 C19            3.4698    -3.2489    -3.4376 C.ar    
  20 C20            3.2944    -2.8379    -2.1298 C.ar    
  21 C21            5.9642     6.8010     1.3771 C.3     
  22 C22            4.7272     7.7034     1.5693 C.3     
  23 C23            3.6510     6.7149     2.0903 C.3     
  24 C24            4.0002     5.4281     1.3019 C.3     
  25 H25           -0.9621     1.9071     0.0170 H       
  26 H26           -0.9296    -0.5502     0.0080 H       
  27 H27            1.1859    -1.7677    -0.0176 H       
  28 H28            1.1256     3.1760     0.0077 H       
  29 H29            5.1565    -1.8005     0.4590 H       
  30 H30            3.4771    -2.3902     0.4724 H       
  31 H31            6.0702     2.8632     0.8494 H       
  32 H32            6.0537     2.8716    -0.9305 H       
  33 H33            7.0151     4.9756    -0.1291 H       
  34 H34            5.4280     5.3039    -0.8651 H       
  35 H35            6.3801    -1.5680    -1.6654 H       
  36 H36            6.5712    -2.3537    -3.9915 H       
  37 H37            2.6553    -3.7283    -3.9603 H       
  38 H38            2.3487    -2.9903    -1.6309 H       
  39 H39            6.6162     6.8754     2.2474 H       
  40 H40            6.5052     7.0997     0.4792 H       
  41 H41            4.9274     8.4797     2.3079 H       
  42 H42            4.4197     8.1430     0.6204 H       
  43 H43            3.7544     6.5554     3.1636 H       
  44 H44            2.6483     7.0639     1.8438 H       
  45 H45            3.5733     5.4694     0.2998 H       
  46 H46            3.6388     4.5476     1.8332 H       
@<TRIPOS>BOND
   1    1    2 ar
   2    1    6 ar
   3    1   25 1
   4    2    3 ar
   5    2   26 1
   6    3    4 ar
   7    3   27 1
   8    4    5 ar
   9    4    7 1
  10    5    6 ar
  11    5    9 1
  12    6   28 1
  13    7    8 1
  14    7   11 1
  15    8    9 2
  16    9   10 1
  17   10   13 1
  18   11   12 1
  19   11   29 1
  20   11   30 1
  21   12   16 ar
  22   12   20 ar
  23   13   14 1
  24   13   31 1
  25   13   32 1
  26   14   15 1
  27   14   33 1
  28   14   34 1
  29   15   21 1
  30   15   24 1
  31   16   17 ar
  32   16   35 1
  33   17   18 ar
  34   17   36 1
  35   18   19 ar
  36   19   20 ar
  37   19   37 1
  38   20   38 1
  39   21   22 1
  40   21   39 1
  41   21   40 1
  42   22   23 1
  43   22   41 1
  44   22   42 1
  45   23   24 1
  46   23   43 1
  47   23   44 1
  48   24   45 1
  49   24   46 1

#	End of record

