#	Name: ASD01810752
#	Creating user name:	WinNT
#	Creation time:	15. 06. 2019 19:25

#	Modifying user name:	WinNT
#	Modification time:	15. 06. 2019 19:25

#	Program:	/corina/corina34_cracker 3.40 0067  02.08.2006

@<TRIPOS>MOLECULE
ASD01810752
  22   22    0    0    0
SMALL
NO_CHARGES


@<TRIPOS>ATOM
   1 C1            -0.0184     1.5028     0.0103 C.2     
   2 C2             0.0021    -0.0041     0.0020 C.3     
   3 O3             1.0197     2.1211     0.0037 O.2     
   4 O4            -1.1898     2.1580     0.0194 O.3     
   5 O5             2.9825    -1.2504     1.6753 O.3     
   6 C6             2.1691    -0.1316     1.3033 C.3     
   7 C7             1.4513    -0.4944    -0.0145 C.3     
   8 C8             1.5099    -2.0463    -0.0052 C.3     
   9 C9             2.8767    -2.2849     0.6845 C.3     
  10 C10           -1.1335     3.6089     0.0270 C.3     
  11 H11           -0.4983    -0.3791     0.8948 H       
  12 H12           -0.5153    -0.3696    -0.8850 H       
  13 H13            1.4333     0.0661     2.0829 H       
  14 H14            2.7957     0.7475     1.1532 H       
  15 H15            1.9868    -0.0880    -0.8725 H       
  16 H16            0.6942    -2.4667     0.5831 H       
  17 H17            1.5066    -2.4456    -1.0195 H       
  18 H18            3.6863    -2.1989    -0.0403 H       
  19 H19            2.8950    -3.2662     1.1586 H       
  20 H20           -0.6017     3.9472     0.9164 H       
  21 H21           -0.6102     3.9569    -0.8636 H       
  22 H22           -2.1463     4.0118     0.0340 H       
@<TRIPOS>BOND
   1    1    2 1
   2    1    3 2
   3    1    4 1
   4    2    7 1
   5    2   11 1
   6    2   12 1
   7    4   10 1
   8    5    6 1
   9    5    9 1
  10    6    7 1
  11    6   13 1
  12    6   14 1
  13    7    8 1
  14    7   15 1
  15    8    9 1
  16    8   16 1
  17    8   17 1
  18    9   18 1
  19    9   19 1
  20   10   20 1
  21   10   21 1
  22   10   22 1

#	End of record

