#	Name: ASD00844398
#	Creating user name:	WinNT
#	Creation time:	15. 06. 2019 18:50

#	Modifying user name:	WinNT
#	Modification time:	15. 06. 2019 18:50

#	Program:	/corina/corina34_cracker 3.40 0067  02.08.2006

@<TRIPOS>MOLECULE
ASD00844398
  94   99    0    0    0
SMALL
NO_CHARGES


@<TRIPOS>ATOM
   1 F1            -0.0818    -3.1422     4.7177 F       
   2 C2            -0.0149     1.3803     0.0254 C.ar    
   3 C3             0.0029    -0.0066     0.0108 C.ar    
   4 C4             1.2146    -0.6824    -0.0068 C.ar    
   5 C5             2.3997     0.0270    -0.0096 C.ar    
   6 C6             2.3793     1.4096     0.0055 C.ar    
   7 C7             1.1734     2.0853     0.0225 C.ar    
   8 C8             1.2376    -2.1892    -0.0222 C.3     
   9 C9             0.4953    -2.7183    -1.2306 C.2     
  10 N10            2.6179    -2.6801    -0.0124 N.am    
  11 C11            3.4633    -2.3341    -1.0034 C.2     
  12 N12            4.7589    -2.7002    -0.9424 N.am    
  13 O13            3.0571    -1.6916    -1.9523 O.2     
  14 C14            5.6723    -2.4336    -2.0640 C.3     
  15 C15            6.9190    -1.7284    -1.5194 C.3     
  16 N16            7.4921    -2.5273    -0.4280 N.3     
  17 C17            6.5584    -2.6346     0.7010 C.3     
  18 C18            5.2984    -3.3715     0.2499 C.3     
  19 C19            8.7825    -1.9758     0.0066 C.3     
  20 C20            9.2888    -2.7561     1.2230 C.3     
  21 C21           10.6610    -2.2171     1.6336 C.3     
  22 N22           11.5994    -2.3593     0.5131 N.3     
  23 C23           11.1584    -1.5804    -0.6510 C.3     
  24 C24            9.8010    -2.1003    -1.1298 C.3     
  25 C25           12.9606    -1.9803     0.9151 C.3     
  26 O26            0.7756    -2.5161    -2.3932 O.2     
  27 N27           -0.5318    -3.4543    -0.7743 N.am    
  28 C28            0.4673    -2.7426     1.1552 C.ar    
  29 C29           -0.5779    -3.4898     0.6215 C.ar    
  30 C30            0.6342    -2.6251     2.5174 C.ar    
  31 C31           -0.2443    -3.2555     3.3813 C.ar    
  32 C32           -1.3009    -4.0109     2.8627 C.ar    
  33 C33           -1.4641    -4.1261     1.4825 C.ar    
  34 C34           -0.9809    -5.8440    -2.0636 C.ar    
  35 C35            0.1988    -5.9992    -2.7766 C.ar    
  36 C36           -1.6527    -6.9552    -1.5916 C.ar    
  37 C37           -1.1500    -8.2209    -1.8290 C.ar    
  38 C38            0.0259    -8.3783    -2.5396 C.ar    
  39 C39            0.7011    -7.2707    -3.0139 C.ar    
  40 H40            0.4166    -9.3682    -2.7237 H       
  41 O41            0.8613    -4.9078    -3.2423 O.3     
  42 C42            2.0695    -5.1431    -3.9682 C.3     
  43 C43            2.6685    -3.8060    -4.4087 C.3     
  44 C44           13.9460    -2.3734    -0.1874 C.3     
  45 C45           -2.2148    -4.6666     3.7490 C.1     
  46 N46           -2.9398    -5.1868     4.4520 N.1     
  47 S47           -1.6181    -4.2307    -1.7538 S.o2    
  48 O48           -2.7989    -4.4069    -0.9831 O.2     
  49 O49           -1.5974    -3.5453    -2.9984 O.2     
  50 O50           -1.1645    -0.7024     0.0141 O.3     
  51 C51           -2.3735     0.0592     0.0330 C.3     
  52 C52           -3.5739    -0.8896     0.0339 C.3     
  53 F53           -3.5411    -1.6842    -1.1171 F       
  54 F54           -3.5205    -1.7080     1.1673 F       
  55 H55           -0.9568     1.9086     0.0346 H       
  56 H56            3.3431    -0.4985    -0.0233 H       
  57 H57            3.3071     1.9625     0.0039 H       
  58 H58            1.1601     3.1652     0.0343 H       
  59 H59            2.9233    -3.2542     0.7073 H       
  60 H60            5.9596    -3.3743    -2.5338 H       
  61 H61            5.1783    -1.7923    -2.7940 H       
  62 H62            7.6542    -1.6218    -2.3170 H       
  63 H63            6.6443    -0.7429    -1.1433 H       
  64 H64            7.0321    -3.1853     1.5137 H       
  65 H65            6.2888    -1.6365     1.0462 H       
  66 H66            4.5575    -3.3531     1.0491 H       
  67 H67            5.5469    -4.4032     0.0009 H       
  68 H68            8.6589    -0.9261     0.2729 H       
  69 H69            8.5885    -2.6361     2.0496 H       
  70 H70            9.3741    -3.8124     0.9680 H       
  71 H71           10.5723    -1.1643     1.9017 H       
  72 H72           11.0307    -2.7800     2.4906 H       
  73 H73           11.0674    -0.5306    -0.3723 H       
  74 H74           11.8894    -1.6809    -1.4533 H       
  75 H75            9.8944    -3.1463    -1.4218 H       
  76 H76            9.4667    -1.5119    -1.9842 H       
  77 H77           13.0054    -0.9031     1.0753 H       
  78 H78           13.2237    -2.4963     1.8385 H       
  79 H79            1.4521    -2.0404     2.9120 H       
  80 H80           -2.2802    -4.7096     1.0825 H       
  81 H81           -2.5713    -6.8349    -1.0365 H       
  82 H82           -1.6763    -9.0882    -1.4587 H       
  83 H83            1.6190    -7.3942    -3.5694 H       
  84 H84            2.7808    -5.6672    -3.3299 H       
  85 H85            1.8530    -5.7512    -4.8466 H       
  86 H86            3.5900    -3.9854    -4.9624 H       
  87 H87            1.9572    -3.2819    -5.0471 H       
  88 H88            2.8850    -3.1979    -3.5303 H       
  89 H89           14.9560    -2.0922     0.1109 H       
  90 H90           13.9011    -3.4506    -0.3476 H       
  91 H91           13.6829    -1.8574    -1.1108 H       
  92 H92           -2.3990     0.6782     0.9297 H       
  93 H93           -2.4151     0.6968    -0.8501 H       
  94 H94           -4.4961    -0.3087     0.0483 H       
@<TRIPOS>BOND
   1    1   31 1
   2    2    3 ar
   3    2    7 ar
   4    2   55 1
   5    3    4 ar
   6    3   50 1
   7    4    5 ar
   8    4    8 1
   9    5    6 ar
  10    5   56 1
  11    6    7 ar
  12    6   57 1
  13    7   58 1
  14    8    9 1
  15    8   10 1
  16    8   28 1
  17    9   26 2
  18    9   27 am
  19   10   11 am
  20   10   59 1
  21   11   12 am
  22   11   13 2
  23   12   14 1
  24   12   18 1
  25   14   15 1
  26   14   60 1
  27   14   61 1
  28   15   16 1
  29   15   62 1
  30   15   63 1
  31   16   17 1
  32   16   19 1
  33   17   18 1
  34   17   64 1
  35   17   65 1
  36   18   66 1
  37   18   67 1
  38   19   20 1
  39   19   24 1
  40   19   68 1
  41   20   21 1
  42   20   69 1
  43   20   70 1
  44   21   22 1
  45   21   71 1
  46   21   72 1
  47   22   23 1
  48   22   25 1
  49   23   24 1
  50   23   73 1
  51   23   74 1
  52   24   75 1
  53   24   76 1
  54   25   44 1
  55   25   77 1
  56   25   78 1
  57   27   47 am
  58   27   29 1
  59   28   29 ar
  60   28   30 ar
  61   29   33 ar
  62   30   31 ar
  63   30   79 1
  64   31   32 ar
  65   32   33 ar
  66   32   45 1
  67   33   80 1
  68   34   35 ar
  69   34   36 ar
  70   34   47 1
  71   35   41 1
  72   35   39 ar
  73   36   37 ar
  74   36   81 1
  75   37   38 ar
  76   37   82 1
  77   38   39 ar
  78   38   40 1
  79   39   83 1
  80   41   42 1
  81   42   43 1
  82   42   84 1
  83   42   85 1
  84   43   86 1
  85   43   87 1
  86   43   88 1
  87   44   89 1
  88   44   90 1
  89   44   91 1
  90   45   46 3
  91   47   48 2
  92   47   49 2
  93   50   51 1
  94   51   52 1
  95   51   92 1
  96   51   93 1
  97   52   53 1
  98   52   54 1
  99   52   94 1

#	End of record

