#	Name: ASD01100056
#	Creating user name:	WinNT
#	Creation time:	15. 06. 2019 18:58

#	Modifying user name:	WinNT
#	Modification time:	15. 06. 2019 18:58

#	Program:	/corina/corina34_cracker 3.40 0067  02.08.2006

@<TRIPOS>MOLECULE
ASD01100056
  38   39    0    0    0
SMALL
NO_CHARGES


@<TRIPOS>ATOM
   1 C1             0.2691     1.7674    -2.0908 C.ar    
   2 C2            -0.0220     0.4601    -1.7439 C.ar    
   3 C3             0.8592    -0.2585    -0.9558 C.ar    
   4 C4             2.0298     0.3299    -0.5154 C.ar    
   5 C5             2.3201     1.6362    -0.8624 C.ar    
   6 C6             1.4400     2.3547    -1.6498 C.ar    
   7 C7             3.5963     2.2773    -0.3815 C.3     
   8 C8             3.2677     3.3500     0.6588 C.3     
   9 C9             2.7080     2.6848     1.9179 C.3     
  10 C10            4.5394     4.1235     1.0130 C.3     
  11 Cl11          -1.4927    -0.2781    -2.2969 Cl      
  12 C12            4.3107     2.9106    -1.5476 C.2     
  13 N13            5.6346     3.1527    -1.4759 N.am    
  14 O14            3.6943     3.2024    -2.5504 O.2     
  15 C15            6.3100     3.6415    -2.5819 C.2     
  16 N16            5.7601     3.8995    -3.7315 N.2     
  17 C17            6.5385     4.3585    -4.6801 C.2     
  18 C18            7.8456     4.5001    -4.3067 C.2     
  19 S19            7.9814     3.9967    -2.6237 S.3     
  20 C20            8.9127     4.9779    -5.1335 C.1     
  21 C21            2.2271     4.3143     0.0859 C.3     
  22 N22            9.7592     5.3569    -5.7895 N.1     
  23 H23           -0.4163     2.3274    -2.7097 H       
  24 H24            0.6323    -1.2789    -0.6844 H       
  25 H25            2.7176    -0.2309     0.1001 H       
  26 H26            1.6673     3.3752    -1.9206 H       
  27 H27            4.2368     1.5188     0.0685 H       
  28 H28            3.4493     1.9979     2.3260 H       
  29 H29            2.4739     3.4490     2.6590 H       
  30 H30            1.8020     2.1338     1.6655 H       
  31 H31            5.0115     4.4844     0.0993 H       
  32 H32            4.2838     4.9709     1.6491 H       
  33 H33            5.2287     3.4662     1.5430 H       
  34 H34            6.1144     2.9846    -0.6498 H       
  35 H35            6.1794     4.6028    -5.6689 H       
  36 H36            1.3024     3.7734    -0.1152 H       
  37 H37            2.0337     5.1096     0.8057 H       
  38 H38            2.6040     4.7468    -0.8409 H       
@<TRIPOS>BOND
   1    1    2 ar
   2    1    6 ar
   3    1   23 1
   4    2    3 ar
   5    2   11 1
   6    3    4 ar
   7    3   24 1
   8    4    5 ar
   9    4   25 1
  10    5    6 ar
  11    5    7 1
  12    6   26 1
  13    7    8 1
  14    7   12 1
  15    7   27 1
  16    8    9 1
  17    8   10 1
  18    8   21 1
  19    9   28 1
  20    9   29 1
  21    9   30 1
  22   10   31 1
  23   10   32 1
  24   10   33 1
  25   12   13 am
  26   12   14 2
  27   13   15 1
  28   13   34 1
  29   15   16 2
  30   15   19 1
  31   16   17 1
  32   17   18 2
  33   17   35 1
  34   18   19 1
  35   18   20 1
  36   20   22 3
  37   21   36 1
  38   21   37 1
  39   21   38 1

#	End of record

