#	Name: ASD09740091
#	Creating user name:	WinNT
#	Creation time:	15. 06. 2019 21:22

#	Modifying user name:	WinNT
#	Modification time:	15. 06. 2019 21:22

#	Program:	/corina/corina34_cracker 3.40 0067  02.08.2006

@<TRIPOS>MOLECULE
ASD09740091
  38   41    0    0    0
SMALL
NO_CHARGES


@<TRIPOS>ATOM
   1 O1             0.0291     1.2613    -0.7111 O.3     
   2 N2             0.0552     0.0605    -0.8784 N.2     
   3 C3             1.2699     1.7177    -0.4808 C.2     
   4 N4             2.0757     0.6735    -0.5219 N.2     
   5 C5             1.2806    -0.3859    -0.7786 C.2     
   6 C6             1.7164    -1.7984    -0.9214 C.ar    
   7 C7             1.6595     3.1217    -0.2296 C.ar    
   8 C8             0.7918    -2.8109    -1.1887 C.ar    
   9 C9             3.0628    -2.1498    -0.7979 C.ar    
  10 C10            3.4249    -3.4745    -0.9384 C.ar    
  11 N11            2.5196    -4.4011    -1.1855 N.ar    
  12 C12            1.2395    -4.1107    -1.3144 C.ar    
  13 C13            2.9984     3.4475    -0.0053 C.ar    
  14 C14            3.3597     4.7585     0.2290 C.ar    
  15 C15            2.3996     5.7530     0.2431 C.ar    
  16 C16            1.0640     5.4392     0.0209 C.ar    
  17 C17            0.6917     4.1255    -0.2216 C.ar    
  18 N18            0.0974     6.4477     0.0365 N.3     
  19 C19           -1.1630     5.9625     0.6281 C.3     
  20 C20           -1.5004     6.8930     1.8120 C.3     
  21 C21           -0.7165     8.1882     1.4730 C.3     
  22 C22            0.5632     7.6159     0.8138 C.3     
  23 H23           -0.2579    -2.5803    -1.2950 H       
  24 H24            3.8094    -1.3961    -0.5959 H       
  25 H25            4.4635    -3.7557    -0.8449 H       
  26 H26            0.5316    -4.9009    -1.5163 H       
  27 H27            3.7514     2.6734    -0.0147 H       
  28 H28            4.3960     5.0084     0.4023 H       
  29 H29            2.6883     6.7772     0.4277 H       
  30 H30           -0.3455     3.8795    -0.3949 H       
  31 H31           -1.9604     6.0025    -0.1140 H       
  32 H32           -1.0360     4.9402     0.9844 H       
  33 H33           -2.5715     7.0905     1.8538 H       
  34 H34           -1.1494     6.4647     2.7509 H       
  35 H35           -1.2732     8.8090     0.7710 H       
  36 H36           -0.4738     8.7458     2.3776 H       
  37 H37            1.2762     7.3041     1.5769 H       
  38 H38            1.0132     8.3566     0.1527 H       
@<TRIPOS>BOND
   1    1    2 1
   2    1    3 1
   3    2    5 2
   4    3    4 2
   5    3    7 1
   6    4    5 1
   7    5    6 1
   8    6    8 ar
   9    6    9 ar
  10    7   13 ar
  11    7   17 ar
  12    8   12 ar
  13    8   23 1
  14    9   10 ar
  15    9   24 1
  16   10   11 ar
  17   10   25 1
  18   11   12 ar
  19   12   26 1
  20   13   14 ar
  21   13   27 1
  22   14   15 ar
  23   14   28 1
  24   15   16 ar
  25   15   29 1
  26   16   17 ar
  27   16   18 1
  28   17   30 1
  29   18   19 1
  30   18   22 1
  31   19   20 1
  32   19   31 1
  33   19   32 1
  34   20   21 1
  35   20   33 1
  36   20   34 1
  37   21   22 1
  38   21   35 1
  39   21   36 1
  40   22   37 1
  41   22   38 1

#	End of record

