#	Name: ASD01881494
#	Creating user name:	WinNT
#	Creation time:	15. 06. 2019 19:42

#	Modifying user name:	WinNT
#	Modification time:	15. 06. 2019 19:42

#	Program:	/corina/corina34_cracker 3.40 0067  02.08.2006

@<TRIPOS>MOLECULE
ASD01881494
  81   86    0    0    0
SMALL
NO_CHARGES


@<TRIPOS>ATOM
   1 C1            -0.0162     1.3400     0.0094 C.2     
   2 N2             0.0021    -0.0041     0.0020 N.am    
   3 C3             1.3977    -0.4568    -0.0137 C.3     
   4 C4             2.2461     0.7903    -0.0151 C.ar    
   5 C5             3.6048     1.0059    -0.0270 C.ar    
   6 C6             4.0997     2.2992    -0.0247 C.ar    
   7 C7             3.2313     3.3766    -0.0102 C.ar    
   8 C8             1.8673     3.1714     0.0017 C.ar    
   9 C9             1.3606     1.8704    -0.0009 C.ar    
  10 O10           -1.0229     2.0211     0.0181 O.2     
  11 C11           -1.1770    -0.8735     0.0090 C.3     
  12 C12           -1.5950    -1.1645    -1.4093 C.ar    
  13 C13           -1.0755    -2.2620    -2.0705 C.ar    
  14 C14           -1.4571    -2.5309    -3.3707 C.ar    
  15 C15           -2.3624    -1.6987    -4.0129 C.ar    
  16 C16           -2.8822    -0.5981    -3.3472 C.ar    
  17 C17           -2.5017    -0.3367    -2.0452 C.ar    
  18 O18           -2.7390    -1.9608    -5.2921 O.3     
  19 C19           -3.6746    -1.0613    -5.8902 C.3     
  20 F20           -3.1317     0.2278    -5.9149 F       
  21 F21           -3.9501    -1.4764    -7.1975 F       
  22 F22           -4.8578    -1.0548    -5.1438 F       
  23 C23            0.9264     4.3485     0.0180 C.3     
  24 C24            5.5882     2.5341    -0.0377 C.3     
  25 N25            6.0586     2.6178    -1.4268 N.3     
  26 C26            7.4517     3.0789    -1.4837 C.3     
  27 C27            7.8602     3.2932    -2.9429 C.3     
  28 C28            7.7071     1.9766    -3.7094 C.3     
  29 C29            6.2588     1.4933    -3.5938 C.3     
  30 C30            5.8966     1.3311    -2.1158 C.3     
  31 C31            8.0559     2.1989    -5.1824 C.3     
  32 C32            8.0237     0.8598    -5.9219 C.3     
  33 C33            8.3725     1.0821    -7.3949 C.3     
  34 C34            8.3407    -0.2368    -8.1232 C.ar    
  35 C35            7.1660    -0.6749    -8.7064 C.ar    
  36 C36            7.1339    -1.8833    -9.3746 C.ar    
  37 C37            8.2825    -2.6580    -9.4608 C.ar    
  38 C38            9.4605    -2.2154    -8.8747 C.ar    
  39 C39            9.4878    -1.0039    -8.2119 C.ar    
  40 C40            7.1782    -4.4413   -10.7556 C.2     
  41 N41            7.5407    -5.5836   -11.2726 N.2     
  42 C42            8.8384    -5.7984   -11.0101 C.2     
  43 C43            9.3033    -4.7511   -10.3029 C.2     
  44 N44            8.2529    -3.8856   -10.1381 N.pl3   
  45 H45            1.6084    -1.0521     0.8747 H       
  46 H46            1.5914    -1.0425    -0.9124 H       
  47 H47            4.2849     0.1671    -0.0376 H       
  48 H48            3.6234     4.3828    -0.0078 H       
  49 H49           -0.9364    -1.8080     0.5159 H       
  50 H50           -1.9926    -0.3754     0.5333 H       
  51 H51           -0.3705    -2.9094    -1.5703 H       
  52 H52           -1.0508    -3.3881    -3.8869 H       
  53 H53           -3.5871     0.0514    -3.8450 H       
  54 H54           -2.9097     0.5173    -1.5249 H       
  55 H55            0.6897     4.6386    -1.0056 H       
  56 H56            0.0094     4.0735     0.5391 H       
  57 H57            1.3997     5.1849     0.5324 H       
  58 H58            5.8133     3.4670     0.4790 H       
  59 H59            6.0906     1.7088     0.4669 H       
  60 H60            7.5459     4.0180    -0.9385 H       
  61 H61            8.1011     2.3296    -1.0311 H       
  62 H62            7.2201     4.0525    -3.3923 H       
  63 H63            8.8990     3.6205    -2.9857 H       
  64 H64            8.3759     1.2279    -3.2847 H       
  65 H65            5.5934     2.2242    -4.0534 H       
  66 H66            6.1534     0.5346    -4.1016 H       
  67 H67            6.5533     0.5900    -1.6601 H       
  68 H68            4.8615     1.0008    -2.0296 H       
  69 H69            7.3299     2.8782    -5.6292 H       
  70 H70            9.0533     2.6319    -5.2583 H       
  71 H71            8.7496     0.1805    -5.4751 H       
  72 H72            7.0262     0.4268    -5.8460 H       
  73 H73            7.6465     1.7615    -7.8417 H       
  74 H74            9.3699     1.5151    -7.4707 H       
  75 H75            6.2726    -0.0717    -8.6391 H       
  76 H76            6.2159    -2.2253    -9.8293 H       
  77 H77           10.3556    -2.8162    -8.9398 H       
  78 H78           10.4049    -0.6572    -7.7590 H       
  79 H79            6.1905    -4.0083   -10.8132 H       
  80 H80            9.4113    -6.6623   -11.3132 H       
  81 H81           10.3103    -4.6184    -9.9359 H       
@<TRIPOS>BOND
   1    1    2 am
   2    1    9 1
   3    1   10 2
   4    2    3 1
   5    2   11 1
   6    3    4 1
   7    3   45 1
   8    3   46 1
   9    4    5 ar
  10    4    9 ar
  11    5    6 ar
  12    5   47 1
  13    6    7 ar
  14    6   24 1
  15    7    8 ar
  16    7   48 1
  17    8    9 ar
  18    8   23 1
  19   11   12 1
  20   11   49 1
  21   11   50 1
  22   12   13 ar
  23   12   17 ar
  24   13   14 ar
  25   13   51 1
  26   14   15 ar
  27   14   52 1
  28   15   16 ar
  29   15   18 1
  30   16   17 ar
  31   16   53 1
  32   17   54 1
  33   18   19 1
  34   19   20 1
  35   19   21 1
  36   19   22 1
  37   23   55 1
  38   23   56 1
  39   23   57 1
  40   24   25 1
  41   24   58 1
  42   24   59 1
  43   25   26 1
  44   25   30 1
  45   26   27 1
  46   26   60 1
  47   26   61 1
  48   27   28 1
  49   27   62 1
  50   27   63 1
  51   28   29 1
  52   28   31 1
  53   28   64 1
  54   29   30 1
  55   29   65 1
  56   29   66 1
  57   30   67 1
  58   30   68 1
  59   31   32 1
  60   31   69 1
  61   31   70 1
  62   32   33 1
  63   32   71 1
  64   32   72 1
  65   33   34 1
  66   33   73 1
  67   33   74 1
  68   34   35 ar
  69   34   39 ar
  70   35   36 ar
  71   35   75 1
  72   36   37 ar
  73   36   76 1
  74   37   38 ar
  75   37   44 1
  76   38   39 ar
  77   38   77 1
  78   39   78 1
  79   40   41 2
  80   40   44 1
  81   40   79 1
  82   41   42 1
  83   42   43 2
  84   42   80 1
  85   43   44 1
  86   43   81 1

#	End of record

