#	Name: ASD02590020
#	Creating user name:	WinNT
#	Creation time:	15. 06. 2019 20:25

#	Modifying user name:	WinNT
#	Modification time:	15. 06. 2019 20:25

#	Program:	/corina/corina34_cracker 3.40 0067  02.08.2006

@<TRIPOS>MOLECULE
ASD02590020
  24   26    0    0    0
SMALL
NO_CHARGES


@<TRIPOS>ATOM
   1 C1            -0.0168     1.3847     0.0097 C.ar    
   2 C2             0.0021    -0.0041     0.0020 C.ar    
   3 C3            -1.1765    -0.7193     0.0094 C.ar    
   4 C4            -2.3916    -0.0490     0.0246 C.ar    
   5 C5            -2.4175     1.3576     0.0324 C.ar    
   6 C6            -1.2120     2.0676     0.0305 C.ar    
   7 N7            -3.7104    -0.4579     0.0358 N.pl3   
   8 C8            -4.4842     0.6709     0.0497 C.2     
   9 N9            -3.7185     1.7337     0.0476 N.2     
  10 C10           -5.9639     0.6882     0.0643 C.ar    
  11 C11           -6.6411     1.9066     0.0777 C.ar    
  12 C12           -8.0258     1.9064     0.0908 C.ar    
  13 C13           -8.6878     0.6875     0.0901 C.ar    
  14 C14           -7.9521    -0.4848     0.0764 C.ar    
  15 N15           -6.6361    -0.4570     0.0590 N.ar    
  16 Cl16           1.4787     2.2663     0.0001 Cl      
  17 H17            0.9467    -0.5274    -0.0102 H       
  18 H18           -1.1542    -1.7990     0.0031 H       
  19 H19           -1.2191     3.1476     0.0367 H       
  20 H20           -4.0290    -1.3741     0.0336 H       
  21 H21           -6.0935     2.8375     0.0782 H       
  22 H22           -8.5779     2.8346     0.1018 H       
  23 H23           -9.7672     0.6535     0.1005 H       
  24 H24           -8.4647    -1.4353     0.0761 H       
@<TRIPOS>BOND
   1    1    2 ar
   2    1   16 1
   3    1    6 ar
   4    2    3 ar
   5    2   17 1
   6    3    4 ar
   7    3   18 1
   8    4    5 ar
   9    4    7 1
  10    5    6 ar
  11    5    9 1
  12    6   19 1
  13    7    8 1
  14    7   20 1
  15    8    9 2
  16    8   10 1
  17   10   11 ar
  18   10   15 ar
  19   11   12 ar
  20   11   21 1
  21   12   13 ar
  22   12   22 1
  23   13   14 ar
  24   13   23 1
  25   14   15 ar
  26   14   24 1

#	End of record

