#	Name: ASD01882906
#	Creating user name:	WinNT
#	Creation time:	15. 06. 2019 19:45

#	Modifying user name:	WinNT
#	Modification time:	15. 06. 2019 19:45

#	Program:	/corina/corina34_cracker 3.40 0067  02.08.2006

@<TRIPOS>MOLECULE
ASD01882906
  35   38    0    0    0
SMALL
NO_CHARGES


@<TRIPOS>ATOM
   1 C1            -0.0170     1.4032     0.0098 C.ar    
   2 C2             0.0021    -0.0041     0.0020 C.ar    
   3 C3            -1.1994    -0.7095     0.0097 C.ar    
   4 C4            -2.3966    -0.0321     0.0243 C.ar    
   5 C5            -2.4216     1.3674     0.0321 C.ar    
   6 C6            -1.2327     2.0855     0.0301 C.ar    
   7 C7             1.3858     1.8273    -0.0014 C.2     
   8 C8             2.1324     0.7121    -0.0145 C.2     
   9 N9             1.3236    -0.3913    -0.0127 N.pl3   
  10 Cl10          -1.1856    -2.4454     0.0002 Cl      
  11 C11           -3.7186     2.0840     0.0473 C.2     
  12 C12           -4.5642     1.9746     1.1352 C.2     
  13 C13           -5.7886     2.6664     1.1222 C.2     
  14 N14           -6.1251     3.4351     0.0374 N.pl3   
  15 C15           -5.2835     3.5373    -1.0339 C.2     
  16 C16           -4.1021     2.8923    -1.0495 C.2     
  17 N17           -6.7759     2.7467     2.0049 N.2     
  18 C18           -7.7328     3.5414     1.5205 C.2     
  19 C19           -7.3529     3.9814     0.3009 C.2     
  20 C20           -8.1343     4.9018    -0.6010 C.3     
  21 C21           -7.8547     6.3550    -0.2123 C.3     
  22 F22           -6.4876     6.6192    -0.3478 F       
  23 F23           -8.5801     7.2095    -1.0495 F       
  24 F24           -8.2409     6.5650     1.1158 F       
  25 H25           -3.3246    -0.5845     0.0295 H       
  26 H26           -1.2499     3.1654     0.0360 H       
  27 H27            1.7497     2.8442     0.0001 H       
  28 H28            3.2121     0.6891    -0.0254 H       
  29 H29            1.6347    -1.3100    -0.0208 H       
  30 H30           -4.2885     1.3659     1.9836 H       
  31 H31           -5.5680     4.1478    -1.8782 H       
  32 H32           -3.4491     2.9847    -1.9048 H       
  33 H33           -8.6570     3.7912     2.0205 H       
  34 H34           -7.8334     4.7382    -1.6358 H       
  35 H35           -9.1994     4.6960    -0.4954 H       
@<TRIPOS>BOND
   1    1    2 ar
   2    1    7 1
   3    1    6 ar
   4    2    3 ar
   5    2    9 1
   6    3    4 ar
   7    3   10 1
   8    4    5 ar
   9    4   25 1
  10    5    6 ar
  11    5   11 1
  12    6   26 1
  13    7    8 2
  14    7   27 1
  15    8    9 1
  16    8   28 1
  17    9   29 1
  18   11   12 2
  19   11   16 1
  20   12   13 1
  21   12   30 1
  22   13   14 1
  23   13   17 2
  24   14   15 1
  25   14   19 1
  26   15   16 2
  27   15   31 1
  28   16   32 1
  29   17   18 1
  30   18   19 2
  31   18   33 1
  32   19   20 1
  33   20   21 1
  34   20   34 1
  35   20   35 1
  36   21   22 1
  37   21   23 1
  38   21   24 1

#	End of record

