#	Name: ASD01915280
#	Creating user name:	WinNT
#	Creation time:	15. 06. 2019 20:05

#	Modifying user name:	WinNT
#	Modification time:	15. 06. 2019 20:05

#	Program:	/corina/corina34_cracker 3.40 0067  02.08.2006

@<TRIPOS>MOLECULE
ASD01915280
  41   43    0    0    0
SMALL
NO_CHARGES


@<TRIPOS>ATOM
   1 C1            -0.1337     1.5000    -0.0477 C.3     
   2 O2            -0.0822     0.0721    -0.0252 O.3     
   3 C3            -1.3659    -0.5558    -0.0227 C.3     
   4 C4            -1.1929    -2.0526     0.0016 C.2     
   5 N5            -2.2750    -2.8560     0.0080 N.am    
   6 C6            -2.1286    -4.3193     0.0316 C.3     
   7 C7            -2.9929    -4.8767     1.1677 C.3     
   8 N8            -4.3712    -4.3927     1.0129 N.3     
   9 C9            -4.4385    -2.9299     1.1292 C.3     
  10 C10           -3.6336    -2.2927    -0.0023 C.3     
  11 C11           -5.2248    -5.0084     1.9333 C.ar    
  12 C12           -5.8099    -4.2615     2.9467 C.ar    
  13 C13           -6.6530    -4.8724     3.8550 C.ar    
  14 C14           -6.9144    -6.2273     3.7560 C.ar    
  15 C15           -6.3325    -6.9752     2.7472 C.ar    
  16 C16           -5.4938    -6.3686     1.8320 C.ar    
  17 Cl17          -7.9739    -6.9910     4.8996 Cl      
  18 Cl18          -4.7640    -7.3068     0.5667 Cl      
  19 O19           -0.0799    -2.5343     0.0154 O.2     
  20 C20            1.2681     2.0532    -0.0484 C.2     
  21 C21            2.3532     1.2733    -0.0302 C.2     
  22 S22            3.7721     2.3179    -0.0384 S.3     
  23 C23            2.7653     3.6995    -0.0656 C.2     
  24 N24            1.5245     3.3456    -0.0727 N.2     
  25 H25           -0.6552     1.8307    -0.9459 H       
  26 H26           -0.6652     1.8584     0.8338 H       
  27 H27           -1.9230    -0.2401     0.8594 H       
  28 H28           -1.9130    -0.2678    -0.9203 H       
  29 H29           -2.4608    -4.7359    -0.9193 H       
  30 H30           -1.0844    -4.5802     0.2041 H       
  31 H31           -2.9836    -5.9661     1.1309 H       
  32 H32           -2.5950    -4.5413     2.1255 H       
  33 H33           -5.4777    -2.6074     1.0645 H       
  34 H34           -4.0206    -2.6216     2.0875 H       
  35 H35           -3.5854    -1.2138     0.1452 H       
  36 H36           -4.1079    -2.5135    -0.9585 H       
  37 H37           -5.6059    -3.2039     3.0253 H       
  38 H38           -7.1083    -4.2914     4.6435 H       
  39 H39           -6.5378    -8.0329     2.6726 H       
  40 H40            2.3592     0.1934    -0.0133 H       
  41 H41            3.1170     4.7205    -0.0795 H       
@<TRIPOS>BOND
   1    1    2 1
   2    1   20 1
   3    1   25 1
   4    1   26 1
   5    2    3 1
   6    3    4 1
   7    3   27 1
   8    3   28 1
   9    4    5 am
  10    4   19 2
  11    5    6 1
  12    5   10 1
  13    6    7 1
  14    6   29 1
  15    6   30 1
  16    7    8 1
  17    7   31 1
  18    7   32 1
  19    8    9 1
  20    8   11 1
  21    9   10 1
  22    9   33 1
  23    9   34 1
  24   10   35 1
  25   10   36 1
  26   11   12 ar
  27   11   16 ar
  28   12   13 ar
  29   12   37 1
  30   13   14 ar
  31   13   38 1
  32   14   15 ar
  33   14   17 1
  34   15   16 ar
  35   15   39 1
  36   16   18 1
  37   20   21 2
  38   20   24 1
  39   21   22 1
  40   21   40 1
  41   22   23 1
  42   23   24 2
  43   23   41 1

#	End of record

