#	Name: ASD03740004
#	Creating user name:	WinNT
#	Creation time:	15. 06. 2019 20:46

#	Modifying user name:	WinNT
#	Modification time:	15. 06. 2019 20:46

#	Program:	/corina/corina34_cracker 3.40 0067  02.08.2006

@<TRIPOS>MOLECULE
ASD03740004
  62   65    0    0    0
SMALL
NO_CHARGES


@<TRIPOS>ATOM
   1 N1            -1.0657     0.3360     0.9013 N.am    
   2 C2            -0.5509    -0.3726    -0.2822 C.3     
   3 C3            -0.8829     0.4681    -1.5140 C.3     
   4 C4            -2.3204     0.9165    -1.4856 C.ar    
   5 C5            -3.0714     0.9453    -0.3321 C.ar    
   6 C6            -2.5192     0.5048     1.0050 C.3     
   7 C7            -2.8944     1.3162    -2.6865 C.ar    
   8 C8            -4.2042     1.7456    -2.7297 C.ar    
   9 C9            -4.9549     1.7808    -1.5691 C.ar    
  10 C10           -4.3886     1.3819    -0.3760 C.ar    
  11 S11           -0.0458     0.9129     2.0715 S.o2    
  12 C12            0.5642     2.4858     1.4048 C.3     
  13 O13           -0.8903     1.1400     3.1915 O.2     
  14 O14            1.0021    -0.0453     2.1264 O.2     
  15 C15            1.5282     3.1247     2.4066 C.3     
  16 C16            0.9423    -0.5402    -0.1667 C.2     
  17 O17            1.6617     0.4358    -0.1379 O.2     
  18 N18            1.4784    -1.7747    -0.0952 N.am    
  19 C19            2.9365    -1.9667    -0.1122 C.3     
  20 C20            3.3243    -2.8559     1.0741 C.3     
  21 N21            2.5342    -4.0936     1.0330 N.3     
  22 C22            1.0997    -3.8155     1.1836 C.3     
  23 C23            0.6209    -2.9652     0.0079 C.3     
  24 C24            2.9728    -4.9997     2.0013 C.ar    
  25 C25            4.2272    -5.5852     1.8893 C.ar    
  26 C26            4.6580    -6.4805     2.8489 C.ar    
  27 C27            3.8417    -6.7943     3.9198 C.ar    
  28 C28            2.5919    -6.2131     4.0344 C.ar    
  29 C29            2.1574    -5.3129     3.0817 C.ar    
  30 C30            5.1172    -5.2445     0.7219 C.3     
  31 C31            6.0190    -7.1162     2.7282 C.3     
  32 H32           -1.0271    -1.3497    -0.3632 H       
  33 H33           -0.2346     1.3440    -1.5356 H       
  34 H34           -0.7106    -0.1266    -2.4110 H       
  35 H35           -2.9813    -0.4387     1.2953 H       
  36 H36           -2.7405     1.2628     1.7563 H       
  37 H37           -2.3094     1.2907    -3.5940 H       
  38 H38           -4.6423     2.0538    -3.6674 H       
  39 H39           -5.9801     2.1194    -1.5964 H       
  40 H40           -4.9745     1.4094     0.5309 H       
  41 H41            1.0849     2.3044     0.4646 H       
  42 H42           -0.2766     3.1572     1.2309 H       
  43 H43            1.8948     4.0698     2.0060 H       
  44 H44            1.0076     3.3061     3.3468 H       
  45 H45            2.3691     2.4533     2.5805 H       
  46 H46            3.2313    -2.4499    -1.0437 H       
  47 H47            3.4340    -1.0009    -0.0240 H       
  48 H48            4.3851    -3.0993     1.0147 H       
  49 H49            3.1236    -2.3270     2.0058 H       
  50 H50            0.5472    -4.7548     1.2036 H       
  51 H51            0.9301    -3.2733     2.1138 H       
  52 H52           -0.4126    -2.6608     0.1732 H       
  53 H53            0.6928    -3.5419    -0.9142 H       
  54 H54            4.1807    -7.4951     4.6684 H       
  55 H55            1.9567    -6.4607     4.8720 H       
  56 H56            1.1815    -4.8592     3.1720 H       
  57 H57            5.8063    -4.4506     1.0099 H       
  58 H58            5.6835    -6.1278     0.4268 H       
  59 H59            4.5055    -4.9086    -0.1155 H       
  60 H60            6.7563    -6.4956     3.2374 H       
  61 H61            5.9995    -8.1058     3.1847 H       
  62 H62            6.2855    -7.2071     1.6752 H       
@<TRIPOS>BOND
   1    1    2 1
   2    1   11 am
   3    1    6 1
   4    2    3 1
   5    2   16 1
   6    2   32 1
   7    3    4 1
   8    3   33 1
   9    3   34 1
  10    4    5 ar
  11    4    7 ar
  12    5    6 1
  13    5   10 ar
  14    6   35 1
  15    6   36 1
  16    7    8 ar
  17    7   37 1
  18    8    9 ar
  19    8   38 1
  20    9   10 ar
  21    9   39 1
  22   10   40 1
  23   11   12 1
  24   11   13 2
  25   11   14 2
  26   12   15 1
  27   12   41 1
  28   12   42 1
  29   15   43 1
  30   15   44 1
  31   15   45 1
  32   16   17 2
  33   16   18 am
  34   18   19 1
  35   18   23 1
  36   19   20 1
  37   19   46 1
  38   19   47 1
  39   20   21 1
  40   20   48 1
  41   20   49 1
  42   21   22 1
  43   21   24 1
  44   22   23 1
  45   22   50 1
  46   22   51 1
  47   23   52 1
  48   23   53 1
  49   24   25 ar
  50   24   29 ar
  51   25   26 ar
  52   25   30 1
  53   26   27 ar
  54   26   31 1
  55   27   28 ar
  56   27   54 1
  57   28   29 ar
  58   28   55 1
  59   29   56 1
  60   30   57 1
  61   30   58 1
  62   30   59 1
  63   31   60 1
  64   31   61 1
  65   31   62 1

#	End of record

