#	Name: ASD01915567
#	Creating user name:	WinNT
#	Creation time:	15. 06. 2019 20:05

#	Modifying user name:	WinNT
#	Modification time:	15. 06. 2019 20:05

#	Program:	/corina/corina34_cracker 3.40 0067  02.08.2006

@<TRIPOS>MOLECULE
ASD01915567
  40   43    0    0    0
SMALL
NO_CHARGES


@<TRIPOS>ATOM
   1 C1            -0.0132     1.3904     0.0430 C.2     
   2 N2             0.0120     0.0144    -0.0049 N.pl3   
   3 C3            -1.2294    -0.7666    -0.0654 C.3     
   4 C4            -2.3408    -0.0051     0.6551 C.3     
   5 N5            -2.4043     1.3988     0.2636 N.am    
   6 C6            -1.2815     2.1339     0.0767 C.2     
   7 C7             1.2861     1.8135     0.0636 C.2     
   8 C8             2.0506     0.6394     0.0380 C.2     
   9 N9             1.2249    -0.3806     0.0031 N.2     
  10 C10            3.5555     0.5613     0.0491 C.3     
  11 O11            4.1007     1.8816     0.0903 O.3     
  12 C12            5.4553     1.9895     0.1052 C.ar    
  13 O13           -1.3205     3.3422    -0.0564 O.2     
  14 C14            6.0522     3.2412     0.1450 C.ar    
  15 C15            6.2436     0.8480     0.0864 C.ar    
  16 C16            7.6203     0.9604     0.1016 C.ar    
  17 C17            8.2128     2.2092     0.1354 C.ar    
  18 C18            7.4294     3.3483     0.1600 C.ar    
  19 C19           -3.6487     1.9977     0.0772 C.ar    
  20 C20           -4.3124     2.5608     1.1627 C.ar    
  21 C21           -5.5481     3.1530     0.9627 C.ar    
  22 C22           -6.0783     3.1613    -0.3201 C.ar    
  23 C23           -5.3639     2.5834    -1.3510 C.ar    
  24 N24           -4.1862     2.0306    -1.1319 N.ar    
  25 Cl25          -3.6015     2.5211     2.7460 Cl      
  26 H26           -1.5110    -0.9221    -1.1068 H       
  27 H27           -1.0764    -1.7311     0.4187 H       
  28 H28           -3.2963    -0.4777     0.4275 H       
  29 H29           -2.1683    -0.0636     1.7298 H       
  30 H30            1.6455     2.8316     0.0928 H       
  31 H31            3.8840     0.0050     0.9270 H       
  32 H32            3.8997     0.0540    -0.8522 H       
  33 H33            5.4407     4.1312     0.1638 H       
  34 H34            5.7812    -0.1277     0.0603 H       
  35 H35            8.2344     0.0721     0.0873 H       
  36 H36            9.2894     2.2950     0.1472 H       
  37 H37            7.8946     4.3226     0.1861 H       
  38 H38           -6.0871     3.5979     1.7860 H       
  39 H39           -7.0400     3.6147    -0.5099 H       
  40 H40           -5.7730     2.5873    -2.3505 H       
@<TRIPOS>BOND
   1    1    2 1
   2    1    7 2
   3    1    6 1
   4    2    3 1
   5    2    9 1
   6    3    4 1
   7    3   26 1
   8    3   27 1
   9    4    5 1
  10    4   28 1
  11    4   29 1
  12    5    6 am
  13    5   19 1
  14    6   13 2
  15    7    8 1
  16    7   30 1
  17    8    9 2
  18    8   10 1
  19   10   11 1
  20   10   31 1
  21   10   32 1
  22   11   12 1
  23   12   14 ar
  24   12   15 ar
  25   14   18 ar
  26   14   33 1
  27   15   16 ar
  28   15   34 1
  29   16   17 ar
  30   16   35 1
  31   17   18 ar
  32   17   36 1
  33   18   37 1
  34   19   20 ar
  35   19   24 ar
  36   20   21 ar
  37   20   25 1
  38   21   22 ar
  39   21   38 1
  40   22   23 ar
  41   22   39 1
  42   23   24 ar
  43   23   40 1

#	End of record

