#	Name: ASD01914634
#	Creating user name:	WinNT
#	Creation time:	15. 06. 2019 20:03

#	Modifying user name:	WinNT
#	Modification time:	15. 06. 2019 20:03

#	Program:	/corina/corina34_cracker 3.40 0067  02.08.2006

@<TRIPOS>MOLECULE
ASD01914634
  32   35    0    0    0
SMALL
NO_CHARGES


@<TRIPOS>ATOM
   1 C1            -0.0167     1.3791     0.0096 C.ar    
   2 C2             7.2071    -1.0624    -0.0727 C.2     
   3 N3             8.1726    -2.0496    -0.0850 N.pl3   
   4 C4             6.0116    -1.6840    -0.0646 C.2     
   5 N5             6.2489    -3.0249    -0.0736 N.2     
   6 C6             7.5409    -3.2344    -0.0864 C.2     
   7 C7             4.7274    -1.0508    -0.0489 C.1     
   8 C8             3.6745    -0.5316    -0.0360 C.1     
   9 C9             2.3902     0.1016    -0.0203 C.ar    
  10 C10            1.2173    -0.6652    -0.0132 C.ar    
  11 C11            0.0021    -0.0041     0.0020 C.ar    
  12 N12            1.1035     2.0764     0.0027 N.ar    
  13 C13            2.2846     1.4952    -0.0118 C.ar    
  14 C14            9.5278    -1.6977    -0.0918 C.ar    
  15 C15            9.8461    -0.3671     0.2020 C.ar    
  16 O16            8.8769     0.5316     0.5114 O.3     
  17 C17            7.5756     0.3971    -0.0758 C.3     
  18 C18           10.5217    -2.6114    -0.3770 C.ar    
  19 C19           11.8456    -2.2075    -0.3842 C.ar    
  20 C20           12.1670    -0.8917    -0.1070 C.ar    
  21 C21           11.1756     0.0259     0.1845 C.ar    
  22 H22           -0.9643     1.8971     0.0169 H       
  23 H23            8.0204    -4.2021    -0.0972 H       
  24 H24            1.2608    -1.7444    -0.0197 H       
  25 H25           -0.9225    -0.5622     0.0082 H       
  26 H26            3.1793     2.1001    -0.0167 H       
  27 H27            7.5932     0.7741    -1.0984 H       
  28 H28            6.8480     0.9580     0.5107 H       
  29 H29           10.2675    -3.6383    -0.5943 H       
  30 H30           12.6268    -2.9195    -0.6058 H       
  31 H31           13.2006    -0.5786    -0.1184 H       
  32 H32           11.4371     1.0516     0.3989 H       
@<TRIPOS>BOND
   1    1   11 ar
   2    1   12 ar
   3    1   22 1
   4    2    3 1
   5    2    4 2
   6    2   17 1
   7    3   14 1
   8    3    6 1
   9    4    5 1
  10    4    7 1
  11    5    6 2
  12    6   23 1
  13    7    8 3
  14    8    9 1
  15    9   10 ar
  16    9   13 ar
  17   10   11 ar
  18   10   24 1
  19   11   25 1
  20   12   13 ar
  21   13   26 1
  22   14   15 ar
  23   14   18 ar
  24   15   16 1
  25   15   21 ar
  26   16   17 1
  27   17   27 1
  28   17   28 1
  29   18   19 ar
  30   18   29 1
  31   19   20 ar
  32   19   30 1
  33   20   21 ar
  34   20   31 1
  35   21   32 1

#	End of record

