#	Name: ASD01816977
#	Creating user name:	WinNT
#	Creation time:	15. 06. 2019 19:36

#	Modifying user name:	WinNT
#	Modification time:	15. 06. 2019 19:36

#	Program:	/corina/corina34_cracker 3.40 0067  02.08.2006

@<TRIPOS>MOLECULE
ASD01816977
  49   53    0    0    0
SMALL
NO_CHARGES


@<TRIPOS>ATOM
   1 C1            -0.0168     1.3862     0.0097 C.ar    
   2 C2             0.0021    -0.0041     0.0020 C.ar    
   3 N3             1.1274    -0.6793    -0.0123 N.ar    
   4 C4             2.3109    -0.0604    -0.0203 C.ar    
   5 C5             2.3594     1.3548    -0.0132 C.ar    
   6 C6             1.1626     2.0821     0.0021 C.ar    
   7 C7             3.5128    -0.7990    -0.0362 C.ar    
   8 C8             4.7176    -0.1801    -0.0444 C.ar    
   9 C9             4.8189     1.2191    -0.0374 C.ar    
  10 C10            3.6595     2.0169    -0.0221 C.ar    
  11 C11            6.1194     1.9009    -0.0457 C.2     
  12 N12            6.1139     3.2542    -0.0381 N.am    
  13 C13            4.9427     3.9377    -0.0228 C.2     
  14 N14            3.7793     3.3548    -0.0160 N.2     
  15 O15            7.1626     1.2728    -0.0587 O.2     
  16 C16            3.4551    -2.3049    -0.0437 C.3     
  17 C17            3.2981    -2.7945    -1.4602 C.ar    
  18 C18            4.4144    -3.0676    -2.2362 C.ar    
  19 C19            4.2228    -3.5158    -3.5337 C.ar    
  20 C20            2.9329    -3.6748    -4.0082 C.ar    
  21 N21            1.8938    -3.4050    -3.2405 N.ar    
  22 C22            2.0398    -2.9824    -1.9999 C.ar    
  23 C23            7.3828     3.9864    -0.0458 C.3     
  24 C24            7.4543     4.8747    -1.2917 C.3     
  25 C25            7.4728     4.8690     1.2029 C.3     
  26 C26            8.7647     5.6885     1.1470 C.3     
  27 O27            8.7812     6.4681    -0.0505 O.3     
  28 C28            8.7469     5.6940    -1.2512 C.3     
  29 O29            7.4801     4.0451     2.3705 O.3     
  30 Cl30           2.6784    -4.2350    -5.6315 Cl      
  31 H31           -0.9582     1.9154     0.0170 H       
  32 H32           -0.9341    -0.5426     0.0084 H       
  33 H33            1.1697     3.1621     0.0075 H       
  34 H34            5.6184    -0.7758    -0.0562 H       
  35 H35            4.9771     5.0171    -0.0163 H       
  36 H36            4.3761    -2.7059     0.3794 H       
  37 H37            2.6059    -2.6389     0.5524 H       
  38 H38            5.4098    -2.9337    -1.8390 H       
  39 H39            5.0695    -3.7378    -4.1664 H       
  40 H40            1.1658    -2.7719    -1.4015 H       
  41 H41            8.2120     3.2789    -0.0544 H       
  42 H42            7.4466     4.2503    -2.1851 H       
  43 H43            6.5969     5.5475    -1.3089 H       
  44 H44            6.6158     5.5417     1.2360 H       
  45 H45            8.8133     6.3499     2.0121 H       
  46 H46            9.6224     5.0160     1.1548 H       
  47 H47            9.6044     5.0216    -1.2748 H       
  48 H48            8.7826     6.3594    -2.1138 H       
  49 H49            7.5356     4.5389     3.2000 H       
@<TRIPOS>BOND
   1    1    2 ar
   2    1    6 ar
   3    1   31 1
   4    2    3 ar
   5    2   32 1
   6    3    4 ar
   7    4    5 ar
   8    4    7 ar
   9    5    6 ar
  10    5   10 ar
  11    6   33 1
  12    7    8 ar
  13    7   16 1
  14    8    9 ar
  15    8   34 1
  16    9   10 ar
  17    9   11 1
  18   10   14 1
  19   11   12 am
  20   11   15 2
  21   12   13 1
  22   12   23 1
  23   13   14 2
  24   13   35 1
  25   16   17 1
  26   16   36 1
  27   16   37 1
  28   17   18 ar
  29   17   22 ar
  30   18   19 ar
  31   18   38 1
  32   19   20 ar
  33   19   39 1
  34   20   21 ar
  35   20   30 1
  36   21   22 ar
  37   22   40 1
  38   23   24 1
  39   23   25 1
  40   23   41 1
  41   24   28 1
  42   24   42 1
  43   24   43 1
  44   25   26 1
  45   25   29 1
  46   25   44 1
  47   26   27 1
  48   26   45 1
  49   26   46 1
  50   27   28 1
  51   28   47 1
  52   28   48 1
  53   29   49 1

#	End of record

