#	Name: ASD05430736
#	Creating user name:	WinNT
#	Creation time:	15. 06. 2019 21:00

#	Modifying user name:	WinNT
#	Modification time:	15. 06. 2019 21:00

#	Program:	/corina/corina34_cracker 3.40 0067  02.08.2006

@<TRIPOS>MOLECULE
ASD05430736
  66   71    0    0    0
SMALL
NO_CHARGES


@<TRIPOS>ATOM
   1 C1            -0.1562     1.4388     0.4449 C.2     
   2 C2            -0.1018     0.0700     0.1393 C.2     
   3 N3            -1.2695    -0.6662     0.0752 N.pl3   
   4 C4            -2.3602    -0.1095     0.7313 C.2     
   5 N5            -2.5250     1.2593     0.7740 N.am    
   6 C6            -1.4497     2.0884     0.6861 C.2     
   7 O7            -1.5540     3.2955     0.8040 O.2     
   8 C8            -3.8691     1.8253     0.9127 C.3     
   9 C9            -3.9747     2.5679     2.2462 C.3     
  10 C10           -4.1288     2.7858    -0.2192 C.ar    
  11 C11           -3.6794     2.4899    -1.4924 C.ar    
  12 C12           -3.9174     3.3707    -2.5335 C.ar    
  13 C13           -4.6069     4.5498    -2.2985 C.ar    
  14 C14           -5.0567     4.8446    -1.0211 C.ar    
  15 C15           -4.8212     3.9587     0.0162 C.ar    
  16 N16            1.1003     1.9031     0.4462 N.2     
  17 C17            1.9212     0.9153     0.1606 C.2     
  18 N18            1.1946    -0.2384    -0.0360 N.pl3   
  19 C19            3.3922     1.0263     0.0651 C.ar    
  20 C20            4.0164     2.2548     0.2866 C.ar    
  21 C21            5.3927     2.3541     0.1962 C.ar    
  22 C22            6.1533     1.2283    -0.1157 C.ar    
  23 C23            5.5313     0.0068    -0.3363 C.ar    
  24 C24            4.1600    -0.0989    -0.2413 C.ar    
  25 N25            7.5488     1.3298    -0.2072 N.pl3   
  26 C26            8.2462     2.2527    -0.9188 C.2     
  27 N27            9.5214     2.0255    -0.7572 N.2     
  28 C28            9.6853     0.9670     0.0500 C.2     
  29 C29            8.4668     0.5199     0.4095 C.2     
  30 C30           11.0047     0.3821     0.4836 C.3     
  31 F31           -5.7286     5.9936    -0.7895 F       
  32 F32           -3.4775     3.0813    -3.7776 F       
  33 C33           -1.3516    -1.9447    -0.6355 C.3     
  34 N34           -3.2334    -0.8854     1.3098 N.2     
  35 C35           -2.9897    -2.3276     1.3940 C.3     
  36 C36           -2.1830    -2.8391     2.5892 C.3     
  37 C37           -3.6892    -3.0980     2.5156 C.3     
  38 F38           -4.8397     5.4109    -3.3132 F       
  39 O39            6.0038     3.5494     0.4110 O.3     
  40 C40            5.1626     4.6608     0.7258 C.3     
  41 H41           -4.6060     1.0226     0.8844 H       
  42 H42           -3.2378     3.3705     2.2744 H       
  43 H43           -4.9748     2.9890     2.3493 H       
  44 H44           -3.7868     1.8732     3.0648 H       
  45 H45           -3.1418     1.5712    -1.6750 H       
  46 H46           -5.1716     4.1881     1.0117 H       
  47 H47            1.5524    -1.1119    -0.2593 H       
  48 H48            3.4257     3.1262     0.5278 H       
  49 H49            6.1234    -0.8635    -0.5781 H       
  50 H50            3.6786    -1.0503    -0.4130 H       
  51 H51            7.8175     3.0422    -1.5183 H       
  52 H52            8.2538    -0.3197     1.0547 H       
  53 H53           11.3308     0.8647     1.4049 H       
  54 H54           10.8889    -0.6880     0.6553 H       
  55 H55           11.7487     0.5466    -0.2958 H       
  56 H56           -1.1334    -2.7591     0.0553 H       
  57 H57           -2.3555    -2.0712    -1.0408 H       
  58 H58           -0.6270    -1.9549    -1.4497 H       
  59 H59           -2.8550    -2.8381     0.4404 H       
  60 H60           -1.5180    -3.6863     2.4220 H       
  61 H61           -1.8337    -2.1026     3.3129 H       
  62 H62           -4.3307    -2.5318     3.1909 H       
  63 H63           -4.0150    -4.1155     2.3000 H       
  64 H64            4.4646     4.8318    -0.0938 H       
  65 H65            4.6061     4.4482     1.6386 H       
  66 H66            5.7754     5.5502     0.8727 H       
@<TRIPOS>BOND
   1    1    2 2
   2    1   16 1
   3    1    6 1
   4    2    3 1
   5    2   18 1
   6    3    4 1
   7    3   33 1
   8    4    5 1
   9    4   34 2
  10    5    6 am
  11    5    8 1
  12    6    7 2
  13    8    9 1
  14    8   10 1
  15    8   41 1
  16    9   42 1
  17    9   43 1
  18    9   44 1
  19   10   11 ar
  20   10   15 ar
  21   11   12 ar
  22   11   45 1
  23   12   13 ar
  24   12   32 1
  25   13   14 ar
  26   13   38 1
  27   14   15 ar
  28   14   31 1
  29   15   46 1
  30   16   17 2
  31   17   18 1
  32   17   19 1
  33   18   47 1
  34   19   20 ar
  35   19   24 ar
  36   20   21 ar
  37   20   48 1
  38   21   22 ar
  39   21   39 1
  40   22   23 ar
  41   22   25 1
  42   23   24 ar
  43   23   49 1
  44   24   50 1
  45   25   26 1
  46   25   29 1
  47   26   27 2
  48   26   51 1
  49   27   28 1
  50   28   29 2
  51   28   30 1
  52   29   52 1
  53   30   53 1
  54   30   54 1
  55   30   55 1
  56   33   56 1
  57   33   57 1
  58   33   58 1
  59   34   35 1
  60   35   36 1
  61   35   37 1
  62   35   59 1
  63   36   37 1
  64   36   60 1
  65   36   61 1
  66   37   62 1
  67   37   63 1
  68   39   40 1
  69   40   64 1
  70   40   65 1
  71   40   66 1

#	End of record

