#	Name: ASD03430383
#	Creating user name:	WinNT
#	Creation time:	15. 06. 2019 20:41

#	Modifying user name:	WinNT
#	Modification time:	15. 06. 2019 20:41

#	Program:	/corina/corina34_cracker 3.40 0067  02.08.2006

@<TRIPOS>MOLECULE
ASD03430383
  51   55    0    0    0
SMALL
NO_CHARGES


@<TRIPOS>ATOM
   1 N1            -0.0157     1.4932     0.4902 N.am    
   2 C2             0.0409     0.2263     0.9344 C.2     
   3 C3             1.4804    -0.0488     1.3139 C.3     
   4 C4             2.1944     1.2486     1.0120 C.ar    
   5 C5             3.5067     1.6460     1.1357 C.ar    
   6 C6             3.8770     2.9284     0.7700 C.ar    
   7 C7             2.9262     3.8060     0.2815 C.ar    
   8 C8             1.6106     3.4104     0.1566 C.ar    
   9 C9             1.2302     2.1206     0.5228 C.ar    
  10 O10           -0.8869    -0.5506     1.0164 O.2     
  11 C11           -1.2434     2.1395     0.0197 C.3     
  12 C12           -0.9991     2.7578    -1.3327 C.ar    
  13 C13           -1.5150     4.0065    -1.6251 C.ar    
  14 C14           -1.2909     4.5737    -2.8657 C.ar    
  15 C15           -0.5505     3.8925    -3.8136 C.ar    
  16 C16           -0.0338     2.6442    -3.5208 C.ar    
  17 C17           -0.2542     2.0788    -2.2788 C.ar    
  18 C18           -2.3417     1.1132    -0.0882 C.ar    
  19 C19           -3.4804     1.2356     0.6859 C.ar    
  20 C20           -4.4879     0.2942     0.5870 C.ar    
  21 C21           -4.3568    -0.7692    -0.2864 C.ar    
  22 C22           -3.2185    -0.8911    -1.0612 C.ar    
  23 C23           -2.2129     0.0527    -0.9654 C.ar    
  24 C24            1.5858    -0.3807     2.7801 C.ar    
  25 C25            2.1214    -1.5968     3.1799 C.ar    
  26 C26            2.2171    -1.8997     4.5299 C.ar    
  27 C27            1.7789    -0.9896     5.4739 C.ar    
  28 C28            1.2451     0.2218     5.0724 C.ar    
  29 C29            1.1545     0.5278     3.7270 C.ar    
  30 O30            2.5509    -2.4898     2.2499 O.3     
  31 Br31           1.9088    -1.4012     7.3150 Br      
  32 H32            1.8871    -0.8585     0.7079 H       
  33 H33            4.2463     0.9579     1.5179 H       
  34 H34            4.9056     3.2431     0.8662 H       
  35 H35            3.2153     4.8068    -0.0034 H       
  36 H36            0.8740     4.1015    -0.2257 H       
  37 H37           -1.5392     2.9153     0.7259 H       
  38 H38           -2.0935     4.5388    -0.8845 H       
  39 H39           -1.6946     5.5490    -3.0944 H       
  40 H40           -0.3760     4.3353    -4.7831 H       
  41 H41            0.5444     2.1118    -4.2615 H       
  42 H42            0.1526     1.1052    -2.0487 H       
  43 H43           -3.5828     2.0664     1.3683 H       
  44 H44           -5.3772     0.3894     1.1923 H       
  45 H45           -5.1436    -1.5051    -0.3632 H       
  46 H46           -3.1159    -1.7221    -1.7433 H       
  47 H47           -1.3252    -0.0405    -1.5734 H       
  48 H48            2.6332    -2.8457     4.8434 H       
  49 H49            0.9029     0.9315     5.8110 H       
  50 H50            0.7418     1.4762     3.4160 H       
  51 H51            3.4805    -2.3858     2.0047 H       
@<TRIPOS>BOND
   1    1    2 am
   2    1    9 1
   3    1   11 1
   4    2    3 1
   5    2   10 2
   6    3    4 1
   7    3   24 1
   8    3   32 1
   9    4    5 ar
  10    4    9 ar
  11    5    6 ar
  12    5   33 1
  13    6    7 ar
  14    6   34 1
  15    7    8 ar
  16    7   35 1
  17    8    9 ar
  18    8   36 1
  19   11   12 1
  20   11   18 1
  21   11   37 1
  22   12   13 ar
  23   12   17 ar
  24   13   14 ar
  25   13   38 1
  26   14   15 ar
  27   14   39 1
  28   15   16 ar
  29   15   40 1
  30   16   17 ar
  31   16   41 1
  32   17   42 1
  33   18   19 ar
  34   18   23 ar
  35   19   20 ar
  36   19   43 1
  37   20   21 ar
  38   20   44 1
  39   21   22 ar
  40   21   45 1
  41   22   23 ar
  42   22   46 1
  43   23   47 1
  44   24   25 ar
  45   24   29 ar
  46   25   26 ar
  47   25   30 1
  48   26   27 ar
  49   26   48 1
  50   27   28 ar
  51   27   31 1
  52   28   29 ar
  53   28   49 1
  54   29   50 1
  55   30   51 1

#	End of record

