#	Name: ASD03241008
#	Creating user name:	WinNT
#	Creation time:	15. 06. 2019 20:35

#	Modifying user name:	WinNT
#	Modification time:	15. 06. 2019 20:35

#	Program:	/corina/corina34_cracker 3.40 0067  02.08.2006

@<TRIPOS>MOLECULE
ASD03241008
  64   70    0    0    0
SMALL
NO_CHARGES


@<TRIPOS>ATOM
   1 C1             0.1060     0.5722    -2.2172 C.3     
   2 C2             1.4563     0.7868    -1.5132 C.3     
   3 C3             0.9781    -0.2251    -0.4586 C.3     
   4 C4             0.0672    -0.8125    -1.5495 C.3     
   5 O5            -0.9223     1.4551    -1.7644 O.3     
   6 C6             2.0563    -1.1719     0.0020 C.ar    
   7 C7             2.0219    -1.6821     1.2876 C.ar    
   8 C8             3.0058    -2.5498     1.7150 C.ar    
   9 C9             4.0367    -2.9124     0.8480 C.ar    
  10 C10            4.0658    -2.3946    -0.4471 C.ar    
  11 C11            3.0731    -1.5319    -0.8644 C.ar    
  12 N12            6.8551    -6.7194     0.1303 N.pl3   
  13 C13            7.8364    -7.5609     0.5814 C.2     
  14 N14            8.4106    -7.4018     1.7859 N.2     
  15 C15            8.0679    -6.4365     2.5979 C.2     
  16 C16            7.0251    -5.4952     2.1868 C.ar    
  17 N17            6.6399    -4.4965     2.9767 N.ar    
  18 C18            5.6921    -3.6666     2.5673 C.ar    
  19 C19            5.0960    -3.8427     1.3005 C.ar    
  20 N20            5.4811    -4.8397     0.5131 N.ar    
  21 C21            6.4276    -5.6706     0.9198 C.ar    
  22 C22            8.0474    -8.5015    -0.4182 C.2     
  23 C23            7.1819    -8.2082    -1.4642 C.2     
  24 N24            6.4686    -7.1555    -1.1428 N.2     
  25 C25            5.2572    -2.5515     3.4410 C.ar    
  26 C26            5.0159    -2.7770     4.7957 C.ar    
  27 C27            4.6111    -1.7347     5.6044 C.ar    
  28 C28            4.4445    -0.4682     5.0735 C.ar    
  29 C29            4.6819    -0.2385     3.7302 C.ar    
  30 C30            5.0931    -1.2716     2.9129 C.ar    
  31 C31            9.0380    -9.6365    -0.3759 C.3     
  32 C32            7.0759    -8.9774    -2.7557 C.3     
  33 C33            0.2124     0.5144    -3.7424 C.3     
  34 C34           -1.0803     0.3034    -4.5332 C.3     
  35 C35           -0.3956     1.6717    -4.5373 C.3     
  36 N36            0.2423     0.3888     0.6548 N.3     
  37 H37            2.3114     0.4410    -2.0940 H       
  38 H38            1.5892     1.7954    -1.1219 H       
  39 H39           -0.9213    -1.0951    -1.1874 H       
  40 H40            0.5425    -1.5956    -2.1402 H       
  41 H41           -1.0195     1.4854    -0.8027 H       
  42 H42            1.2234    -1.4003     1.9580 H       
  43 H43            2.9781    -2.9471     2.7189 H       
  44 H44            4.8613    -2.6716    -1.1230 H       
  45 H45            3.0920    -1.1338    -1.8681 H       
  46 H46            8.5479    -6.3349     3.5601 H       
  47 H47            5.1453    -3.7654     5.2112 H       
  48 H48            4.4236    -1.9082     6.6538 H       
  49 H49            4.1275     0.3445     5.7103 H       
  50 H50            4.5495     0.7523     3.3212 H       
  51 H51            5.2832    -1.0900     1.8654 H       
  52 H52            8.5628   -10.5176     0.0553 H       
  53 H53            9.3740    -9.8633    -1.3876 H       
  54 H54            9.8936    -9.3494     0.2354 H       
  55 H55            6.3362    -9.7705    -2.6466 H       
  56 H56            6.7705    -8.3034    -3.5560 H       
  57 H57            8.0443    -9.4147    -2.9987 H       
  58 H58            1.1217     0.0579    -4.1333 H       
  59 H59           -1.0213    -0.2916    -5.4445 H       
  60 H60           -2.0065     0.2058    -3.9669 H       
  61 H61           -0.8714     2.4742    -3.9737 H       
  62 H62            0.1138     1.9768    -5.4514 H       
  63 H63           -0.0522    -0.3087     1.3218 H       
  64 H64            0.7943     1.1058     1.1013 H       
@<TRIPOS>BOND
   1    1    2 1
   2    1    4 1
   3    1    5 1
   4    1   33 1
   5    2    3 1
   6    2   37 1
   7    2   38 1
   8    3    4 1
   9    3    6 1
  10    3   36 1
  11    4   39 1
  12    4   40 1
  13    5   41 1
  14    6    7 ar
  15    6   11 ar
  16    7    8 ar
  17    7   42 1
  18    8    9 ar
  19    8   43 1
  20    9   10 ar
  21    9   19 1
  22   10   11 ar
  23   10   44 1
  24   11   45 1
  25   12   13 1
  26   12   21 1
  27   12   24 1
  28   13   14 1
  29   13   22 2
  30   14   15 2
  31   15   16 1
  32   15   46 1
  33   16   17 ar
  34   16   21 ar
  35   17   18 ar
  36   18   19 ar
  37   18   25 1
  38   19   20 ar
  39   20   21 ar
  40   22   23 1
  41   22   31 1
  42   23   24 2
  43   23   32 1
  44   25   26 ar
  45   25   30 ar
  46   26   27 ar
  47   26   47 1
  48   27   28 ar
  49   27   48 1
  50   28   29 ar
  51   28   49 1
  52   29   30 ar
  53   29   50 1
  54   30   51 1
  55   31   52 1
  56   31   53 1
  57   31   54 1
  58   32   55 1
  59   32   56 1
  60   32   57 1
  61   33   34 1
  62   33   35 1
  63   33   58 1
  64   34   35 1
  65   34   59 1
  66   34   60 1
  67   35   61 1
  68   35   62 1
  69   36   63 1
  70   36   64 1

#	End of record

