#	Name: ASD07930009
#	Creating user name:	WinNT
#	Creation time:	15. 06. 2019 21:11

#	Modifying user name:	WinNT
#	Modification time:	15. 06. 2019 21:11

#	Program:	/corina/corina34_cracker 3.40 0067  02.08.2006

@<TRIPOS>MOLECULE
ASD07930009
  49   52    0    0    0
SMALL
NO_CHARGES


@<TRIPOS>ATOM
   1 C1            -0.0167     1.3807     0.0096 C.2     
   2 N2             0.0021    -0.0041     0.0020 N.am    
   3 N3             1.2023     2.0320     0.0015 N.pl3   
   4 C4             2.2545     1.5040    -0.8785 C.3     
   5 C5             2.4301    -0.0046    -0.6026 C.3     
   6 C6             1.1260    -0.6674    -0.3006 C.2     
   7 C7             3.6038     2.1081    -0.4355 C.3     
   8 N8             4.2432     1.1401     0.4737 N.3     
   9 C9             3.3350    -0.0129     0.6493 C.3     
  10 C10            4.5423     1.7266     1.6925 C.ar    
  11 N11            5.1230     0.9985     2.6336 N.ar    
  12 C12            5.4244     1.5246     3.8121 C.ar    
  13 C13            5.1254     2.8530     4.0554 C.ar    
  14 C14            4.5132     3.5936     3.0428 C.ar    
  15 N15            4.2449     3.0032     1.8849 N.ar    
  16 F16            5.4186     3.4205     5.2459 F       
  17 C17            6.0848     0.6849     4.8750 C.3     
  18 O18            4.2023     4.8986     3.2374 O.3     
  19 C19            1.9625     1.7955    -2.3280 C.ar    
  20 C20            2.8503     1.3874    -3.3085 C.ar    
  21 C21            2.5817     1.6549    -4.6404 C.ar    
  22 C22            1.4276     2.3288    -4.9906 C.ar    
  23 C23            0.5396     2.7371    -4.0097 C.ar    
  24 C24            0.8057     2.4654    -2.6786 C.ar    
  25 N25           -1.1378     2.0425     0.0186 N.2     
  26 C26           -1.2164    -0.7493     0.3279 C.3     
  27 O27            1.0819    -1.8787    -0.3312 O.2     
  28 C28            3.5776     5.5856     2.1513 C.3     
  29 F29            3.9789     0.7284    -2.9661 F       
  30 F30           -0.5888     3.3964    -4.3520 F       
  31 H31            1.3581     2.8114     0.5575 H       
  32 H32            2.9183    -0.4925    -1.4462 H       
  33 H33            4.2388     2.2739    -1.3058 H       
  34 H34            3.4343     3.0500     0.0861 H       
  35 H35            2.7352     0.1114     1.5509 H       
  36 H36            3.9056    -0.9403     0.6980 H       
  37 H37            7.1677     0.7556     4.7731 H       
  38 H38            5.7881     1.0461     5.8597 H       
  39 H39            5.7762    -0.3543     4.7610 H       
  40 H40            3.2747     1.3370    -5.4054 H       
  41 H41            1.2181     2.5374    -6.0293 H       
  42 H42            0.1129     2.7836    -1.9136 H       
  43 H43           -1.9825     1.5657     0.0200 H       
  44 H44           -2.0230    -0.0493     0.5458 H       
  45 H45           -1.4972    -1.3749    -0.5194 H       
  46 H46           -1.0355    -1.3781     1.1996 H       
  47 H47            3.3831     6.6189     2.4387 H       
  48 H48            4.2363     5.5678     1.2830 H       
  49 H49            2.6367     5.0942     1.9036 H       
@<TRIPOS>BOND
   1    1    2 1
   2    1    3 1
   3    1   25 2
   4    2   26 1
   5    2    6 am
   6    3    4 1
   7    3   31 1
   8    4    7 1
   9    4   19 1
  10    4    5 1
  11    5    6 1
  12    5    9 1
  13    5   32 1
  14    6   27 2
  15    7    8 1
  16    7   33 1
  17    7   34 1
  18    8    9 1
  19    8   10 1
  20    9   35 1
  21    9   36 1
  22   10   11 ar
  23   10   15 ar
  24   11   12 ar
  25   12   13 ar
  26   12   17 1
  27   13   14 ar
  28   13   16 1
  29   14   15 ar
  30   14   18 1
  31   17   37 1
  32   17   38 1
  33   17   39 1
  34   18   28 1
  35   19   20 ar
  36   19   24 ar
  37   20   21 ar
  38   20   29 1
  39   21   22 ar
  40   21   40 1
  41   22   23 ar
  42   22   41 1
  43   23   24 ar
  44   23   30 1
  45   24   42 1
  46   25   43 1
  47   26   44 1
  48   26   45 1
  49   26   46 1
  50   28   47 1
  51   28   48 1
  52   28   49 1

#	End of record

