#	Name: ASD04880743
#	Creating user name:	WinNT
#	Creation time:	15. 06. 2019 20:53

#	Modifying user name:	WinNT
#	Modification time:	15. 06. 2019 20:53

#	Program:	/corina/corina34_cracker 3.40 0067  02.08.2006

@<TRIPOS>MOLECULE
ASD04880743
  80   84    0    0    0
SMALL
NO_CHARGES


@<TRIPOS>ATOM
   1 C1            -0.1189     0.7955    -0.0868 C.3     
   2 C2             0.5069    -0.5673     0.0631 C.2     
   3 C3             0.7459    -1.2104     1.2423 C.2     
   4 C4             0.4494    -0.7206     2.6002 C.2     
   5 O5            -0.0655     0.3706     2.7541 O.2     
   6 F6             0.8829     1.7720    -0.0790 F       
   7 C7             1.3604    -2.4946     0.8752 C.2     
   8 C8             1.4306    -2.5002    -0.4647 C.2     
   9 O9             0.9167    -1.3538    -0.9368 O.3     
  10 F10           -0.8200     0.8562    -1.2959 F       
  11 F11           -1.0004     1.0232     0.9754 F       
  12 C12            1.9921    -3.6177    -1.3055 C.3     
  13 N13            0.7488    -1.4817     3.6714 N.am    
  14 C14            0.5684    -0.9731     4.9646 C.ar    
  15 C15            0.1956    -1.8273     6.0066 C.ar    
  16 C16            0.0159    -1.3242     7.2896 C.ar    
  17 C17            0.2047     0.0174     7.5395 C.ar    
  18 C18            0.5774     0.8766     6.5026 C.ar    
  19 C19            0.7644     0.3720     5.2121 C.ar    
  20 C20            0.7791     2.3133     6.7703 C.2     
  21 O21            1.1034     3.0604     5.8673 O.2     
  22 N22            0.6040     2.7978     8.0157 N.am    
  23 C23            0.8043     4.2245     8.2815 C.3     
  24 C24            0.5437     4.5089     9.7621 C.3     
  25 N25            0.0036    -3.1840     5.7585 N.3     
  26 C26           -1.1582    -3.4004     4.8851 C.3     
  27 C27           -1.2872    -4.8932     4.5728 C.3     
  28 N28           -1.4290    -5.6432     5.8285 N.3     
  29 C29           -0.2672    -5.4268     6.7020 C.3     
  30 C30           -0.1382    -3.9341     7.0143 C.3     
  31 C31           -1.6216    -7.0041     5.5797 C.ar    
  32 C32           -2.7876    -7.4410     4.9636 C.ar    
  33 C33           -2.9745    -8.7871     4.7187 C.ar    
  34 C34           -2.0028    -9.7000     5.0864 C.ar    
  35 C35           -0.8412    -9.2685     5.6997 C.ar    
  36 C36           -0.6453    -7.9229     5.9425 C.ar    
  37 C37           -3.8474    -6.4472     4.5635 C.3     
  38 C38            0.7529     5.9989    10.0398 C.3     
  39 N39            0.5034     6.2712    11.4575 N.am    
  40 C40            1.5302     6.2153    12.5046 C.3     
  41 C41            0.7547     6.1358    13.8383 C.3     
  42 C42           -0.5887     6.8027    13.4622 C.3     
  43 C43           -0.6941     6.6099    11.9654 C.2     
  44 O44           -1.7116     6.7396    11.3182 O.2     
  45 H45            1.6884    -3.2741     1.5469 H       
  46 H46            1.1964    -4.3197    -1.5551 H       
  47 H47            2.4141    -3.2059    -2.2222 H       
  48 H48            2.7718    -4.1359    -0.7473 H       
  49 H49            1.0891    -2.3815     3.5472 H       
  50 H50           -0.2728    -1.9863     8.0925 H       
  51 H51            0.0643     0.4053     8.5376 H       
  52 H52            1.0567     1.0330     4.4096 H       
  53 H53            0.3453     2.2019     8.7360 H       
  54 H54            1.8294     4.4999     8.0336 H       
  55 H55            0.1139     4.8081     7.6725 H       
  56 H56           -0.4814     4.2336    10.0101 H       
  57 H57            1.2341     3.9254    10.3712 H       
  58 H58           -2.0611    -3.0549     5.3886 H       
  59 H59           -1.0238    -2.8450     3.9569 H       
  60 H60           -2.1652    -5.0596     3.9487 H       
  61 H61           -0.3959    -5.2327     4.0451 H       
  62 H62           -0.4015    -5.9822     7.6302 H       
  63 H63            0.6357    -5.7723     6.1985 H       
  64 H64            0.7399    -3.7677     7.6384 H       
  65 H65           -1.0294    -3.5946     7.5420 H       
  66 H66           -3.8807    -9.1274     4.2397 H       
  67 H67           -2.1518   -10.7522     4.8943 H       
  68 H68           -0.0844    -9.9840     5.9856 H       
  69 H69            0.2643    -7.5861     6.4177 H       
  70 H70           -3.7002    -6.1583     3.5228 H       
  71 H71           -4.8322    -6.8999     4.6791 H       
  72 H72           -3.7763    -5.5646     5.1991 H       
  73 H73            1.7780     6.2742     9.7918 H       
  74 H74            0.0625     6.5824     9.4307 H       
  75 H75            2.1519     5.3293    12.3764 H       
  76 H76            2.1447     7.1152    12.4787 H       
  77 H77            0.6045     5.0995    14.1410 H       
  78 H78            1.2644     6.6990    14.6201 H       
  79 H79           -1.4157     6.3090    13.9724 H       
  80 H80           -0.5686     7.8650    13.7057 H       
@<TRIPOS>BOND
   1    1    2 1
   2    1    6 1
   3    1   10 1
   4    1   11 1
   5    2    9 1
   6    2    3 2
   7    3    4 1
   8    3    7 1
   9    4    5 2
  10    4   13 am
  11    7    8 2
  12    7   45 1
  13    8    9 1
  14    8   12 1
  15   12   46 1
  16   12   47 1
  17   12   48 1
  18   13   14 1
  19   13   49 1
  20   14   15 ar
  21   14   19 ar
  22   15   16 ar
  23   15   25 1
  24   16   17 ar
  25   16   50 1
  26   17   18 ar
  27   17   51 1
  28   18   19 ar
  29   18   20 1
  30   19   52 1
  31   20   21 2
  32   20   22 am
  33   22   23 1
  34   22   53 1
  35   23   24 1
  36   23   54 1
  37   23   55 1
  38   24   38 1
  39   24   56 1
  40   24   57 1
  41   25   26 1
  42   25   30 1
  43   26   27 1
  44   26   58 1
  45   26   59 1
  46   27   28 1
  47   27   60 1
  48   27   61 1
  49   28   29 1
  50   28   31 1
  51   29   30 1
  52   29   62 1
  53   29   63 1
  54   30   64 1
  55   30   65 1
  56   31   32 ar
  57   31   36 ar
  58   32   33 ar
  59   32   37 1
  60   33   34 ar
  61   33   66 1
  62   34   35 ar
  63   34   67 1
  64   35   36 ar
  65   35   68 1
  66   36   69 1
  67   37   70 1
  68   37   71 1
  69   37   72 1
  70   38   39 1
  71   38   73 1
  72   38   74 1
  73   39   40 1
  74   39   43 am
  75   40   41 1
  76   40   75 1
  77   40   76 1
  78   41   42 1
  79   41   77 1
  80   41   78 1
  81   42   43 1
  82   42   79 1
  83   42   80 1
  84   43   44 2

#	End of record

