#	Name: ASD01870656
#	Creating user name:	WinNT
#	Creation time:	15. 06. 2019 19:39

#	Modifying user name:	WinNT
#	Modification time:	15. 06. 2019 19:39

#	Program:	/corina/corina34_cracker 3.40 0067  02.08.2006

@<TRIPOS>MOLECULE
ASD01870656
  43   46    0    0    0
SMALL
NO_CHARGES


@<TRIPOS>ATOM
   1 C1            -0.3531     1.4401    -0.5707 C.ar    
   2 N2            -0.2827     0.0439    -0.6083 N.am    
   3 C3            -1.1509    -0.6943     0.1113 C.2     
   4 C4            -1.1441    -2.1656    -0.0075 C.ar    
   5 C5            -0.2307    -4.1680    -0.9689 C.ar    
   6 C6            -0.2344    -2.7952    -0.8611 C.ar    
   7 C7            -2.0435    -2.9325     0.7378 C.ar    
   8 C8            -2.0340    -4.3049     0.6248 C.ar    
   9 C9            -1.1308    -4.9277    -0.2297 C.ar    
  10 N10           -1.1244    -6.3212    -0.3421 N.am    
  11 C11           -0.5929    -8.5528     0.0478 C.3     
  12 C12           -0.3599    -7.1065     0.4266 C.2     
  13 C13           -1.8864    -6.9804    -1.2236 C.2     
  14 C14           -1.6386    -8.4664    -1.0826 C.3     
  15 C15           -1.9900    -9.1452     0.2428 C.3     
  16 C16           -2.1158   -10.6700     0.2426 C.3     
  17 C17           -2.9446    -8.4057     1.1824 C.3     
  18 O18            0.3991    -6.7202     1.2893 O.2     
  19 O19           -2.6537    -6.4680    -2.0098 O.2     
  20 C20           -0.6997     2.0876     0.6076 C.ar    
  21 C21           -0.7684     3.4679     0.6413 C.ar    
  22 C22           -0.4920     4.2034    -0.4979 C.ar    
  23 C23           -0.1466     3.5605    -1.6724 C.ar    
  24 C24           -0.0707     2.1821    -1.7107 C.ar    
  25 O25           -1.9397    -0.1483     0.8583 O.2     
  26 H26            0.2754    -9.2093    -0.0089 H       
  27 H27           -1.5596    -9.0570    -1.9953 H       
  28 Cl28          -1.2022     4.2791     2.1135 Cl      
  29 H29            0.3910    -0.3933    -1.1523 H       
  30 H30            0.4721    -4.6553    -1.6285 H       
  31 H31            0.4647    -2.2058    -1.4358 H       
  32 H32           -2.7450    -2.4495     1.4019 H       
  33 H33           -2.7286    -4.8983     1.2008 H       
  34 H34           -1.5114   -11.0845     1.0495 H       
  35 H35           -3.1592   -10.9485     0.3902 H       
  36 H36           -1.7663   -11.0633    -0.7120 H       
  37 H37           -3.1093    -7.3944     0.8107 H       
  38 H38           -3.8958    -8.9364     1.2253 H       
  39 H39           -2.5089    -8.3596     2.1804 H       
  40 H40           -0.9158     1.5136     1.4966 H       
  41 H41           -0.5466     5.2816    -0.4696 H       
  42 H42            0.0686     4.1372    -2.5598 H       
  43 H43            0.1996     1.6811    -2.6284 H       
@<TRIPOS>BOND
   1    1    2 1
   2    1   20 ar
   3    1   24 ar
   4    2    3 am
   5    2   29 1
   6    3    4 1
   7    3   25 2
   8    4    7 ar
   9    4    6 ar
  10    5    6 ar
  11    5    9 ar
  12    5   30 1
  13    6   31 1
  14    7    8 ar
  15    7   32 1
  16    8    9 ar
  17    8   33 1
  18    9   10 1
  19   10   13 am
  20   10   12 am
  21   11   12 1
  22   11   14 1
  23   11   15 1
  24   11   26 1
  25   12   18 2
  26   13   14 1
  27   13   19 2
  28   14   27 1
  29   14   15 1
  30   15   16 1
  31   15   17 1
  32   16   34 1
  33   16   35 1
  34   16   36 1
  35   17   37 1
  36   17   38 1
  37   17   39 1
  38   20   21 ar
  39   20   40 1
  40   21   22 ar
  41   21   28 1
  42   22   23 ar
  43   22   41 1
  44   23   24 ar
  45   23   42 1
  46   24   43 1

#	End of record

