#	Name: ASD01881549
#	Creating user name:	WinNT
#	Creation time:	15. 06. 2019 19:42

#	Modifying user name:	WinNT
#	Modification time:	15. 06. 2019 19:42

#	Program:	/corina/corina34_cracker 3.40 0067  02.08.2006

@<TRIPOS>MOLECULE
ASD01881549
  56   60    0    0    0
SMALL
NO_CHARGES


@<TRIPOS>ATOM
   1 C1            -0.0169     1.3974     0.0097 C.ar    
   2 C2             0.0021    -0.0041     0.0020 C.ar    
   3 C3            -1.1638    -0.7112     0.0093 C.ar    
   4 C4            -2.3858    -0.0443     0.0246 C.ar    
   5 C5            -2.4245     1.3615     0.0325 C.ar    
   6 C6            -1.2242     2.0806     0.0307 C.ar    
   7 N7            -3.6958    -0.4611     0.0353 N.pl3   
   8 N8            -4.4857     0.6975     0.0493 N.2     
   9 N9            -3.7257     1.7354     0.0474 N.2     
  10 C10           -4.1736    -1.8460     0.0321 C.3     
  11 C11            1.2549     2.1506     0.0016 C.2     
  12 C12            2.0495     2.2088     1.2736 C.3     
  13 C13           -4.3255    -2.3364     1.4735 C.3     
  14 C14           -4.9277    -3.7266     1.6869 C.3     
  15 C15           -3.4338    -3.4955     1.9230 C.3     
  16 C16            1.6251     2.7242    -1.1176 C.2     
  17 C17            2.8940     3.5103    -1.2743 C.3     
  18 C18            3.4457     3.8993     0.0989 C.3     
  19 C19            3.4870     2.6414     0.9774 C.3     
  20 C20            4.8597     4.4629    -0.0561 C.3     
  21 N21            4.8063     5.7128    -0.8184 N.am    
  22 C22            4.6569     6.9531    -0.3192 C.2     
  23 N23            4.6471     7.8905    -1.2738 N.am    
  24 C24            4.7901     7.3519    -2.5008 C.2     
  25 C25            4.9121     5.8571    -2.2806 C.3     
  26 C26            4.4984     9.3251    -1.0169 C.3     
  27 O27            4.5436     7.1950     0.8665 O.2     
  28 O28            4.8188     7.9408    -3.5602 O.2     
  29 C29           -1.2429     3.5875     0.0396 C.3     
  30 F30           -2.3875     4.0358     0.7074 F       
  31 F31           -0.1032     4.0641     0.6961 F       
  32 F32           -1.2553     4.0615    -1.2766 F       
  33 H33            0.9467    -0.5275    -0.0102 H       
  34 H34           -1.1391    -1.7909     0.0030 H       
  35 H35           -5.1385    -1.8963    -0.4724 H       
  36 H36           -3.4559    -2.4768    -0.4925 H       
  37 H37            1.5896     2.9251     1.9545 H       
  38 H38            2.0574     1.2237     1.7401 H       
  39 H39           -4.5611    -1.5675     2.2093 H       
  40 H40           -5.5591    -3.8724     2.5634 H       
  41 H41           -5.2156    -4.2919     0.8006 H       
  42 H42           -2.7389    -3.9087     1.1920 H       
  43 H43           -3.0823    -3.4893     2.9548 H       
  44 H44            0.9793     2.6248    -1.9775 H       
  45 H45            3.6313     2.9051    -1.8017 H       
  46 H46            2.6911     4.4128    -1.8510 H       
  47 H47            2.7979     4.6477     0.5552 H       
  48 H48            4.0005     2.8645     1.9126 H       
  49 H49            4.0101     1.8435     0.4503 H       
  50 H50            5.2837     4.6562     0.9293 H       
  51 H51            5.4826     3.7413    -0.5846 H       
  52 H52            5.8757     5.4942    -2.6381 H       
  53 H53            4.0956     5.3290    -2.7731 H       
  54 H54            5.4820     9.7725    -0.8738 H       
  55 H55            4.0047     9.7970    -1.8664 H       
  56 H56            3.8978     9.4732    -0.1194 H       
@<TRIPOS>BOND
   1    1    2 ar
   2    1   11 1
   3    1    6 ar
   4    2    3 ar
   5    2   33 1
   6    3    4 ar
   7    3   34 1
   8    4    5 ar
   9    4    7 1
  10    5    6 ar
  11    5    9 1
  12    6   29 1
  13    7    8 1
  14    7   10 1
  15    8    9 2
  16   10   13 1
  17   10   35 1
  18   10   36 1
  19   11   12 1
  20   11   16 2
  21   12   19 1
  22   12   37 1
  23   12   38 1
  24   13   14 1
  25   13   15 1
  26   13   39 1
  27   14   15 1
  28   14   40 1
  29   14   41 1
  30   15   42 1
  31   15   43 1
  32   16   17 1
  33   16   44 1
  34   17   18 1
  35   17   45 1
  36   17   46 1
  37   18   19 1
  38   18   20 1
  39   18   47 1
  40   19   48 1
  41   19   49 1
  42   20   21 1
  43   20   50 1
  44   20   51 1
  45   21   22 am
  46   21   25 1
  47   22   23 am
  48   22   27 2
  49   23   24 am
  50   23   26 1
  51   24   25 1
  52   24   28 2
  53   25   52 1
  54   25   53 1
  55   26   54 1
  56   26   55 1
  57   26   56 1
  58   29   30 1
  59   29   31 1
  60   29   32 1

#	End of record

