#	Name: ASD05513001
#	Creating user name:	WinNT
#	Creation time:	15. 06. 2019 21:01

#	Modifying user name:	WinNT
#	Modification time:	15. 06. 2019 21:01

#	Program:	/corina/corina34_cracker 3.40 0067  02.08.2006

@<TRIPOS>MOLECULE
ASD05513001
  31   34    0    0    0
SMALL
NO_CHARGES


@<TRIPOS>ATOM
   1 C1             1.4293    -0.7406    -0.7915 C.ar    
   2 C2             0.3751    -0.1077    -1.4546 C.ar    
   3 C3             0.3846     1.2868    -1.6393 C.ar    
   4 C4             1.4537     2.0221    -1.1534 C.ar    
   5 C5             2.4971     1.3822    -0.4944 C.ar    
   6 C6             2.4809     0.0016    -0.3168 C.ar    
   7 C7            -0.8673    -0.6045    -2.0671 C.2     
   8 C8            -1.5472     0.6185    -2.6057 C.2     
   9 N9            -0.7660     1.6751    -2.3220 N.am    
  10 O10           -1.2564    -1.7531    -2.1241 O.2     
  11 O11           -2.6094     0.6490    -3.1909 O.2     
  12 O12            3.5403     2.1087    -0.0220 O.3     
  13 C13            3.4711     3.4596    -0.1192 C.ar    
  14 C14            2.8879     4.1955     0.9060 C.ar    
  15 C15            2.8130     5.5759     0.8140 C.ar    
  16 C16            3.3342     6.2135    -0.3265 C.ar    
  17 C17            3.9185     5.4642    -1.3506 C.ar    
  18 C18            3.9897     4.0985    -1.2420 C.ar    
  19 N19            2.2893     6.5299     1.6838 N.am    
  20 C20            2.4302     7.7723     1.1902 C.2     
  21 C21            3.1131     7.6563    -0.1395 C.2     
  22 O22            3.4179     8.5557    -0.8959 O.2     
  23 O23            2.0698     8.8006     1.7235 O.2     
  24 H24            1.4142    -1.8110    -0.6488 H       
  25 H25            1.4766     3.0935    -1.2872 H       
  26 H26            3.2964    -0.4857     0.1969 H       
  27 H27           -0.9766     2.5910    -2.5623 H       
  28 H28            2.4925     3.6906     1.7749 H       
  29 H29            4.3167     5.9592    -2.2240 H       
  30 H30            4.4410     3.5175    -2.0327 H       
  31 H31            1.8755     6.3239     2.5365 H       
@<TRIPOS>BOND
   1    1    2 ar
   2    1    6 ar
   3    1   24 1
   4    2    3 ar
   5    2    7 1
   6    3    4 ar
   7    3    9 1
   8    4    5 ar
   9    4   25 1
  10    5    6 ar
  11    5   12 1
  12    6   26 1
  13    7    8 1
  14    7   10 2
  15    8    9 am
  16    8   11 2
  17    9   27 1
  18   12   13 1
  19   13   14 ar
  20   13   18 ar
  21   14   15 ar
  22   14   28 1
  23   15   16 ar
  24   15   19 1
  25   16   17 ar
  26   16   21 1
  27   17   18 ar
  28   17   29 1
  29   18   30 1
  30   19   20 am
  31   19   31 1
  32   20   21 1
  33   20   23 2
  34   21   22 2

#	End of record

