#	Name: ASD01910735
#	Creating user name:	WinNT
#	Creation time:	15. 06. 2019 19:56

#	Modifying user name:	WinNT
#	Modification time:	15. 06. 2019 19:56

#	Program:	/corina/corina34_cracker 3.40 0067  02.08.2006

@<TRIPOS>MOLECULE
ASD01910735
  55   58    0    0    0
SMALL
NO_CHARGES


@<TRIPOS>ATOM
   1 C1            12.4216    -2.2985     4.1743 C.ar    
   2 N2            12.9663    -2.4590     2.9800 N.ar    
   3 C3            12.2902    -2.1314     1.8952 C.ar    
   4 C4            11.0012    -1.6161     2.0098 C.ar    
   5 N5            10.4587    -1.4568     3.2101 N.ar    
   6 C6            11.1430    -1.7874     4.2920 C.ar    
   7 N7            10.2854    -1.2692     0.8698 N.3     
   8 C8             8.9568    -0.7497     1.2202 C.3     
   9 C9             8.2729    -0.2125    -0.0415 C.3     
  10 N10            8.2773    -1.2715    -1.0622 N.am    
  11 C11            9.5527    -1.9364    -1.3696 C.3     
  12 C12           10.1861    -2.4058    -0.0556 C.3     
  13 C13            7.1426    -1.6236    -1.6985 C.2     
  14 C14            7.1894    -2.6011    -2.8071 C.ar    
  15 O15            6.0807    -1.1377    -1.3612 O.2     
  16 C16            6.1830    -3.5609    -2.9367 C.ar    
  17 C17            6.2240    -4.4748    -3.9715 C.ar    
  18 C18            7.2581    -4.4474    -4.8849 C.ar    
  19 C19            8.2731    -3.4919    -4.7677 C.ar    
  20 C20            8.2343    -2.5628    -3.7276 C.ar    
  21 C21            9.3459    -3.4640    -5.7158 C.1     
  22 C22           10.2255    -3.4411    -6.4931 C.1     
  23 C23           11.2983    -3.4133    -7.4411 C.2     
  24 C24            7.2944    -5.4491    -6.0102 C.3     
  25 C25           12.3637    -2.3693    -7.2734 C.3     
  26 C26           13.6055    -2.7493    -8.0825 C.3     
  27 C27           13.1682    -3.1003    -9.5099 C.3     
  28 C28           12.3584    -4.3977    -9.4648 C.3     
  29 C29           11.2965    -4.3090    -8.4077 C.2     
  30 H30           12.9760    -2.5718     5.0600 H       
  31 H31           12.7356    -2.2624     0.9201 H       
  32 H32           10.7020    -1.6580     5.2694 H       
  33 H33            8.3539    -1.5511     1.6475 H       
  34 H34            9.0612     0.0550     1.9480 H       
  35 H35            7.2456     0.0685     0.1902 H       
  36 H36            8.8182     0.6555    -0.4122 H       
  37 H37            9.3714    -2.7952    -2.0160 H       
  38 H38           10.2209    -1.2341    -1.8679 H       
  39 H39           11.1821    -2.8021    -0.2531 H       
  40 H40            9.5662    -3.1841     0.3894 H       
  41 H41            5.3707    -3.5887    -2.2255 H       
  42 H42            5.4430    -5.2148    -4.0661 H       
  43 H43            9.0147    -1.8224    -3.6320 H       
  44 H44            6.7639    -5.0458    -6.8728 H       
  45 H45            8.3301    -5.6519    -6.2829 H       
  46 H46            6.8155    -6.3740    -5.6890 H       
  47 H47           11.9857    -1.4081    -7.6218 H       
  48 H48           12.6294    -2.2902    -6.2193 H       
  49 H49           14.2976    -1.9077    -8.1080 H       
  50 H50           14.0904    -3.6120    -7.6255 H       
  51 H51           12.5507    -2.2970    -9.9117 H       
  52 H52           14.0477    -3.2393   -10.1385 H       
  53 H53           11.8920    -4.5664   -10.4355 H       
  54 H54           13.0229    -5.2307    -9.2358 H       
  55 H55           10.4806    -5.0157    -8.4452 H       
@<TRIPOS>BOND
   1    1    2 ar
   2    1    6 ar
   3    1   30 1
   4    2    3 ar
   5    3    4 ar
   6    3   31 1
   7    4    5 ar
   8    4    7 1
   9    5    6 ar
  10    6   32 1
  11    7    8 1
  12    7   12 1
  13    8    9 1
  14    8   33 1
  15    8   34 1
  16    9   10 1
  17    9   35 1
  18    9   36 1
  19   10   11 1
  20   10   13 am
  21   11   12 1
  22   11   37 1
  23   11   38 1
  24   12   39 1
  25   12   40 1
  26   13   14 1
  27   13   15 2
  28   14   16 ar
  29   14   20 ar
  30   16   17 ar
  31   16   41 1
  32   17   18 ar
  33   17   42 1
  34   18   19 ar
  35   18   24 1
  36   19   20 ar
  37   19   21 1
  38   20   43 1
  39   21   22 3
  40   22   23 1
  41   23   25 1
  42   23   29 2
  43   24   44 1
  44   24   45 1
  45   24   46 1
  46   25   26 1
  47   25   47 1
  48   25   48 1
  49   26   27 1
  50   26   49 1
  51   26   50 1
  52   27   28 1
  53   27   51 1
  54   27   52 1
  55   28   29 1
  56   28   53 1
  57   28   54 1
  58   29   55 1

#	End of record

