#	Name: ASD03082219
#	Creating user name:	WinNT
#	Creation time:	15. 06. 2019 20:27

#	Modifying user name:	WinNT
#	Modification time:	15. 06. 2019 20:27

#	Program:	/corina/corina34_cracker 3.40 0067  02.08.2006

@<TRIPOS>MOLECULE
ASD03082219
  44   47    0    0    0
SMALL
NO_CHARGES


@<TRIPOS>ATOM
   1 N1             0.5176     1.6659     0.0959 N.pl3   
   2 N2             0.0900     0.3284     0.0774 N.2     
   3 C3             1.1666    -0.4163    -0.0259 C.2     
   4 N4             2.2399     0.3748    -0.0730 N.2     
   5 C5             1.8656     1.6365    -0.0006 C.2     
   6 N6             1.1851    -1.8114    -0.0776 N.pl3   
   7 C7             2.3891    -2.4870    -0.3023 C.ar    
   8 C8             2.5522    -3.7885     0.1550 C.ar    
   9 C9             3.7415    -4.4537    -0.0685 C.ar    
  10 C10            4.7714    -3.8241    -0.7475 C.ar    
  11 C11            4.6112    -2.5268    -1.2037 C.ar    
  12 C12            3.4210    -1.8597    -0.9879 C.ar    
  13 C13            3.9191    -5.8657     0.4274 C.3     
  14 F14            2.7523    -6.2819     1.0774 F       
  15 F15            4.1760    -6.7118    -0.6568 F       
  16 F16            4.9938    -5.9142     1.3217 F       
  17 C17            3.1579     5.1450    -0.4134 C.ar    
  18 C18            2.2788     4.0653    -0.4092 C.ar    
  19 C19            2.7627     2.8132    -0.0217 C.ar    
  20 C20            4.1023     2.6871     0.3455 C.ar    
  21 N21            4.9001     3.7354     0.3315 N.ar    
  22 C22            4.4752     4.9296    -0.0240 C.ar    
  23 C23           -0.3296     2.8570     0.1939 C.3     
  24 C24           -0.8830     3.2044    -1.1896 C.3     
  25 F25            5.9342    -4.4767    -0.9646 F       
  26 O26           -1.4130     2.5986     1.0892 O.3     
  27 C27            5.1810     6.2716    -0.1029 C.3     
  28 C28            3.9915     7.2561    -0.1940 C.3     
  29 O29            2.9481     6.4438    -0.7588 O.3     
  30 H30            0.3630    -2.3121     0.0423 H       
  31 H31            1.7496    -4.2796     0.6851 H       
  32 H32            5.4157    -2.0376    -1.7327 H       
  33 H33            3.2947    -0.8494    -1.3482 H       
  34 H34            1.2462     4.1928    -0.6989 H       
  35 H35            4.4882     1.7235     0.6437 H       
  36 H36            0.2607     3.6928     0.5694 H       
  37 H37           -1.4733     2.3685    -1.5652 H       
  38 H38           -1.5134     4.0906    -1.1167 H       
  39 H39           -0.0567     3.4015    -1.8725 H       
  40 H40           -2.0163     3.3458     1.2026 H       
  41 H41            5.7701     6.4550     0.7956 H       
  42 H42            5.8049     6.3314    -0.9947 H       
  43 H43            3.7093     7.6134     0.7963 H       
  44 H44            4.2306     8.0906    -0.8532 H       
@<TRIPOS>BOND
   1    1    2 1
   2    1    5 1
   3    1   23 1
   4    2    3 2
   5    3    4 1
   6    3    6 1
   7    4    5 2
   8    5   19 1
   9    6    7 1
  10    6   30 1
  11    7    8 ar
  12    7   12 ar
  13    8    9 ar
  14    8   31 1
  15    9   10 ar
  16    9   13 1
  17   10   11 ar
  18   10   25 1
  19   11   12 ar
  20   11   32 1
  21   12   33 1
  22   13   14 1
  23   13   15 1
  24   13   16 1
  25   17   18 ar
  26   17   22 ar
  27   17   29 1
  28   18   19 ar
  29   18   34 1
  30   19   20 ar
  31   20   21 ar
  32   20   35 1
  33   21   22 ar
  34   22   27 1
  35   23   24 1
  36   23   26 1
  37   23   36 1
  38   24   37 1
  39   24   38 1
  40   24   39 1
  41   26   40 1
  42   27   28 1
  43   27   41 1
  44   27   42 1
  45   28   29 1
  46   28   43 1
  47   28   44 1

#	End of record

