#	Name: ASD03740043
#	Creating user name:	WinNT
#	Creation time:	15. 06. 2019 20:46

#	Modifying user name:	WinNT
#	Modification time:	15. 06. 2019 20:46

#	Program:	/corina/corina34_cracker 3.40 0067  02.08.2006

@<TRIPOS>MOLECULE
ASD03740043
  42   46    0    0    0
SMALL
NO_CHARGES


@<TRIPOS>ATOM
   1 C1            -0.0168     1.3896     0.0097 C.ar    
   2 C2             0.0021    -0.0041     0.0020 C.ar    
   3 C3             1.1762    -0.6909    -0.0123 C.ar    
   4 C4             2.3963     0.0115    -0.0200 C.ar    
   5 C5             2.3733     1.4296    -0.0136 C.ar    
   6 C6             1.1428     2.1038     0.0024 C.ar    
   7 N7             3.5604    -0.6386    -0.0342 N.ar    
   8 C8             4.7137     0.0107    -0.0440 C.ar    
   9 C9             4.7489     1.4158    -0.0392 C.ar    
  10 C10            3.5945     2.1338    -0.0232 C.ar    
  11 C11            6.1096    -0.4865    -0.0617 C.2     
  12 N12            6.9778     0.5680    -0.0671 N.am    
  13 C13            6.2019     1.8153    -0.0547 C.3     
  14 C14            6.5967    -1.7758    -0.0747 C.2     
  15 C15            7.9787    -2.0074    -0.0884 C.2     
  16 C16            8.8338    -0.9506    -0.0795 C.2     
  17 C17            8.3083     0.3585    -0.0803 C.2     
  18 O18            9.0686     1.3131    -0.0934 O.2     
  19 C19            8.4726    -3.4316    -0.1302 C.3     
  20 C20            9.9578    -3.4471     0.1486 C.2     
  21 O21           10.6966    -2.4744    -0.4322 O.3     
  22 C22           10.3294    -1.1224    -0.0520 C.3     
  23 O23           10.4608    -4.2874     0.8564 O.2     
  24 C24            8.2056    -4.0254    -1.5148 C.3     
  25 C25            8.7073    -5.4703    -1.5554 C.3     
  26 O26            7.7920    -4.2029     0.8617 O.3     
  27 H27           -0.9632     1.9098     0.0170 H       
  28 H28           -0.9311    -0.5478     0.0079 H       
  29 H29            1.1725    -1.7708    -0.0173 H       
  30 H30            1.1154     3.1835     0.0082 H       
  31 H31            3.6125     3.2137    -0.0193 H       
  32 H32            6.4193     2.3994    -0.9489 H       
  33 H33            6.4398     2.3945     0.8375 H       
  34 H34            5.9110    -2.6102    -0.0739 H       
  35 H35           10.7848    -0.4175    -0.7476 H       
  36 H36           10.6957    -0.9203     0.9545 H       
  37 H37            7.1349    -4.0068    -1.7178 H       
  38 H38            8.7288    -3.4378    -2.2692 H       
  39 H39            8.1842    -6.0579    -0.8010 H       
  40 H40            8.5171    -5.8933    -2.5418 H       
  41 H41            9.7781    -5.4889    -1.3524 H       
  42 H42            8.0610    -5.1312     0.8911 H       
@<TRIPOS>BOND
   1    1    2 ar
   2    1    6 ar
   3    1   27 1
   4    2    3 ar
   5    2   28 1
   6    3    4 ar
   7    3   29 1
   8    4    5 ar
   9    4    7 ar
  10    5    6 ar
  11    5   10 ar
  12    6   30 1
  13    7    8 ar
  14    8    9 ar
  15    8   11 1
  16    9   10 ar
  17    9   13 1
  18   10   31 1
  19   11   12 1
  20   11   14 2
  21   12   13 1
  22   12   17 am
  23   13   32 1
  24   13   33 1
  25   14   15 1
  26   14   34 1
  27   15   16 2
  28   15   19 1
  29   16   17 1
  30   16   22 1
  31   17   18 2
  32   19   20 1
  33   19   24 1
  34   19   26 1
  35   20   21 1
  36   20   23 2
  37   21   22 1
  38   22   35 1
  39   22   36 1
  40   24   25 1
  41   24   37 1
  42   24   38 1
  43   25   39 1
  44   25   40 1
  45   25   41 1
  46   26   42 1

#	End of record

