#	Name: ASD01150871
#	Creating user name:	WinNT
#	Creation time:	15. 06. 2019 19:05

#	Modifying user name:	WinNT
#	Modification time:	15. 06. 2019 19:05

#	Program:	/corina/corina34_cracker 3.40 0067  02.08.2006

@<TRIPOS>MOLECULE
ASD01150871
  49   52    0    0    0
SMALL
NO_CHARGES


@<TRIPOS>ATOM
   1 C1            -0.0180     1.4731     0.0101 C.ar    
   2 C2             0.0021    -0.0041     0.0020 C.2     
   3 N3            -1.1558    -0.6938     0.0094 N.am    
   4 O4             1.0629    -0.5975    -0.0113 O.2     
   5 C5            -1.1370    -2.0834     0.0017 C.2     
   6 N6            -0.0476    -2.8553    -0.0124 N.2     
   7 C7            -0.3944    -4.1264    -0.0152 C.2     
   8 N8            -1.7512    -4.2227    -0.0028 N.pl3   
   9 C9            -2.2487    -2.9175     0.0135 C.2     
  10 C10           -3.6021    -2.5261     0.0305 C.2     
  11 O11           -4.5757    -3.4621     0.0323 O.3     
  12 O12           -3.8940    -1.3438     0.0437 O.2     
  13 C13           -5.9257    -2.9939     0.0500 C.3     
  14 C14           -6.8803    -4.1896     0.0494 C.3     
  15 S15            0.7238    -5.4880    -0.0334 S.3     
  16 C16            2.3007    -4.5995    -0.0440 C.3     
  17 C17           -2.5054    -5.4048    -0.0018 C.ar    
  18 C18            1.1800     2.1905     0.0026 C.ar    
  19 C19            1.1549     3.5691     0.0097 C.ar    
  20 C20           -0.0555     4.2425     0.0249 C.ar    
  21 C21           -1.2472     3.5364     0.0325 C.ar    
  22 C22           -1.2350     2.1576     0.0196 C.ar    
  23 Cl23          -0.0791     5.9783     0.0350 Cl      
  24 C24           -3.2970    -5.7220     1.0933 C.ar    
  25 C25           -4.0410    -6.8868     1.0959 C.ar    
  26 C26           -3.9993    -7.7405     0.0058 C.ar    
  27 C27           -3.2060    -7.4245    -1.0951 C.ar    
  28 C28           -2.4649    -6.2551    -1.0986 C.ar    
  29 O29           -4.6264    -8.9295    -0.2359 O.3     
  30 C30           -4.5286    -9.1334    -1.6579 C.3     
  31 O31           -3.3363    -8.4149    -2.0254 O.3     
  32 H32           -2.0023    -0.2203     0.0200 H       
  33 H33           -6.0916    -2.3971     0.9469 H       
  34 H34           -6.1096    -2.3817    -0.8329 H       
  35 H35           -7.9100    -3.8324     0.0629 H       
  36 H36           -6.7144    -4.7864    -0.8475 H       
  37 H37           -6.6964    -4.8017     0.9323 H       
  38 H38            3.1216    -5.3164    -0.0558 H       
  39 H39            2.3564    -3.9688    -0.9313 H       
  40 H40            2.3737    -3.9782     0.8486 H       
  41 H41            2.1244     1.6666    -0.0085 H       
  42 H42            2.0808     4.1251     0.0039 H       
  43 H43           -2.1879     4.0670     0.0443 H       
  44 H44           -2.1648     1.6082     0.0252 H       
  45 H45           -3.3312    -5.0582     1.9445 H       
  46 H46           -4.6556    -7.1319     1.9494 H       
  47 H47           -1.8496    -6.0081    -1.9512 H       
  48 H48           -4.4224   -10.1939    -1.8863 H       
  49 H49           -5.3986    -8.7167    -2.1653 H       
@<TRIPOS>BOND
   1    1    2 1
   2    1   18 ar
   3    1   22 ar
   4    2    3 am
   5    2    4 2
   6    3    5 1
   7    3   32 1
   8    5    6 1
   9    5    9 2
  10    6    7 2
  11    7    8 1
  12    7   15 1
  13    8    9 1
  14    8   17 1
  15    9   10 1
  16   10   11 1
  17   10   12 2
  18   11   13 1
  19   13   14 1
  20   13   33 1
  21   13   34 1
  22   14   35 1
  23   14   36 1
  24   14   37 1
  25   15   16 1
  26   16   38 1
  27   16   39 1
  28   16   40 1
  29   17   24 ar
  30   17   28 ar
  31   18   19 ar
  32   18   41 1
  33   19   20 ar
  34   19   42 1
  35   20   21 ar
  36   20   23 1
  37   21   22 ar
  38   21   43 1
  39   22   44 1
  40   24   25 ar
  41   24   45 1
  42   25   26 ar
  43   25   46 1
  44   26   27 ar
  45   26   29 1
  46   27   28 ar
  47   27   31 1
  48   28   47 1
  49   29   30 1
  50   30   31 1
  51   30   48 1
  52   30   49 1

#	End of record

