#	Name: ASD03730731
#	Creating user name:	WinNT
#	Creation time:	15. 06. 2019 20:44

#	Modifying user name:	WinNT
#	Modification time:	15. 06. 2019 20:44

#	Program:	/corina/corina34_cracker 3.40 0067  02.08.2006

@<TRIPOS>MOLECULE
ASD03730731
  51   55    0    0    0
SMALL
NO_CHARGES


@<TRIPOS>ATOM
   1 N1            -0.0162     1.3445     0.0094 N.am    
   2 C2             0.0021    -0.0041     0.0020 C.2     
   3 C3             1.4567    -0.4310    -0.0098 C.3     
   4 C4             2.2163     0.8605    -0.0128 C.ar    
   5 C5             3.5695     1.1212    -0.0264 C.ar    
   6 C6             3.9538     2.4578    -0.0256 C.ar    
   7 C7             3.0201     3.4739    -0.0109 C.ar    
   8 C8             1.6577     3.2189     0.0028 C.ar    
   9 C9             1.2587     1.8812     0.0001 C.ar    
  10 O10            2.5401    -3.0722    -4.8682 O.3     
  11 C11            3.0770    -1.9300    -5.5612 C.3     
  12 O12            2.4875    -0.8071    -4.8800 O.3     
  13 C13            2.2352    -1.2392    -3.6117 C.ar    
  14 C14            2.2698    -2.6355    -3.6034 C.ar    
  15 C15            1.9716    -0.5413    -2.4412 C.ar    
  16 C16            2.0494    -3.3209    -2.4265 C.ar    
  17 C17            1.7867    -2.6141    -1.2471 C.ar    
  18 C18            1.5593    -3.3490     0.0089 C.2     
  19 C19            1.0178    -2.5744     1.1921 C.3     
  20 C20            1.7665    -1.2360     1.2477 C.3     
  21 C21            1.7443    -1.2168    -1.2585 C.ar    
  22 O22           -0.9639    -0.7376     0.0047 O.2     
  23 O23            1.7975    -4.5354     0.0927 O.2     
  24 C24           -1.2421     2.1466     0.0198 C.3     
  25 C25           -1.6618     2.4179     1.4659 C.3     
  26 C26           -2.9420     3.2556     1.4767 C.3     
  27 C27           -3.3617     3.5270     2.9228 C.3     
  28 C28           -4.6420     4.3647     2.9336 C.3     
  29 H29            4.2982     0.3241    -0.0369 H       
  30 H30            5.0049     2.7057    -0.0363 H       
  31 H31            3.3612     4.4987    -0.0097 H       
  32 H32            0.9352     4.0215     0.0151 H       
  33 H33            4.1631    -1.9043    -5.4726 H       
  34 H34            2.7775    -1.9424    -6.6091 H       
  35 H35            1.9445     0.5383    -2.4555 H       
  36 H36            2.0801    -4.4004    -2.4151 H       
  37 H37           -0.0496    -2.3965     1.0611 H       
  38 H38            1.1907    -3.1339     2.1115 H       
  39 H39            2.8391    -1.4214     1.3058 H       
  40 H40            1.4458    -0.6761     2.1262 H       
  41 H41           -1.0613     3.0930    -0.4898 H       
  42 H42           -2.0359     1.6036    -0.4931 H       
  43 H43           -1.8425     1.4715     1.9755 H       
  44 H44           -0.8679     2.9610     1.9788 H       
  45 H45           -2.7613     4.2021     0.9671 H       
  46 H46           -3.7359     2.7126     0.9638 H       
  47 H47           -3.5425     2.5806     3.4324 H       
  48 H48           -2.5679     4.0700     3.4357 H       
  49 H49           -4.4612     5.3111     2.4240 H       
  50 H50           -5.4358     3.8217     2.4207 H       
  51 H51           -4.9410     4.5580     3.9638 H       
@<TRIPOS>BOND
   1    1    2 am
   2    1    9 1
   3    1   24 1
   4    2    3 1
   5    2   22 2
   6    3    4 1
   7    3   20 1
   8    3   21 1
   9    4    5 ar
  10    4    9 ar
  11    5    6 ar
  12    5   29 1
  13    6    7 ar
  14    6   30 1
  15    7    8 ar
  16    7   31 1
  17    8    9 ar
  18    8   32 1
  19   10   11 1
  20   10   14 1
  21   11   12 1
  22   11   33 1
  23   11   34 1
  24   12   13 1
  25   13   14 ar
  26   13   15 ar
  27   14   16 ar
  28   15   21 ar
  29   15   35 1
  30   16   17 ar
  31   16   36 1
  32   17   18 1
  33   17   21 ar
  34   18   19 1
  35   18   23 2
  36   19   20 1
  37   19   37 1
  38   19   38 1
  39   20   39 1
  40   20   40 1
  41   24   25 1
  42   24   41 1
  43   24   42 1
  44   25   26 1
  45   25   43 1
  46   25   44 1
  47   26   27 1
  48   26   45 1
  49   26   46 1
  50   27   28 1
  51   27   47 1
  52   27   48 1
  53   28   49 1
  54   28   50 1
  55   28   51 1

#	End of record

