#	Name: ASD01001093
#	Creating user name:	WinNT
#	Creation time:	15. 06. 2019 18:55

#	Modifying user name:	WinNT
#	Modification time:	15. 06. 2019 18:55

#	Program:	/corina/corina34_cracker 3.40 0067  02.08.2006

@<TRIPOS>MOLECULE
ASD01001093
  65   68    0    0    0
SMALL
NO_CHARGES


@<TRIPOS>ATOM
   1 C1             0.3267     0.8797    -1.3057 C.2     
   2 N2             0.0022     0.7792     0.0334 N.pl3   
   3 N3            -1.1438     0.0618     0.3989 N.2     
   4 C4            -1.8945    -0.5017    -0.4871 C.2     
   5 N5            -1.6276    -0.4398    -1.8315 N.am    
   6 C6            -0.5476     0.2341    -2.2857 C.2     
   7 C7             1.4810     1.6247    -1.4048 C.2     
   8 C8             1.8504     1.9739    -0.1026 C.2     
   9 C9             0.9317     1.4451     0.7473 C.2     
  10 O10           -0.3034     0.2942    -3.4772 O.2     
  11 C11           -2.5228    -1.1041    -2.7820 C.3     
  12 C12           -3.6720    -0.1876    -3.1144 C.ar    
  13 C13           -3.5294     0.7699    -4.1012 C.ar    
  14 C14           -4.5835     1.6106    -4.4061 C.ar    
  15 C15           -5.7804     1.4935    -3.7244 C.ar    
  16 C16           -5.9233     0.5355    -2.7382 C.ar    
  17 C17           -4.8706    -0.3081    -2.4363 C.ar    
  18 C18           -3.1133    -1.2588    -0.0261 C.3     
  19 N19           -2.6991    -2.3906     0.8067 N.am    
  20 C20           -4.0135    -0.3282     0.7891 C.3     
  21 C21           -5.3207    -1.0488     1.1253 C.3     
  22 C22           -2.0613    -2.1510     2.1037 C.3     
  23 C23           -2.9047    -3.6523     0.3798 C.2     
  24 C24           -3.4551    -3.8952    -0.9708 C.ar    
  25 O25           -2.6378    -4.5905     1.1051 O.2     
  26 C26           -2.8483    -4.8234    -1.8184 C.ar    
  27 C27           -3.3668    -5.0453    -3.0774 C.ar    
  28 C28           -4.4857    -4.3501    -3.5004 C.ar    
  29 C29           -5.0918    -3.4284    -2.6654 C.ar    
  30 C30           -4.5870    -3.2015    -1.4016 C.ar    
  31 C31           -5.0466    -4.5977    -4.8771 C.3     
  32 C32           -3.1239    -2.1622     3.2044 C.3     
  33 C33           -2.4578    -1.9120     4.5589 C.3     
  34 N34           -3.4781    -1.9228     5.6157 N.3     
  35 Cl35           3.2369     2.9162     0.3485 Cl      
  36 H36            2.0012     1.8879    -2.3140 H       
  37 H37            0.9442     1.5426     1.8228 H       
  38 H38           -1.9734    -1.3428    -3.6926 H       
  39 H39           -2.9072    -2.0224    -2.3382 H       
  40 H40           -2.5943     0.8613    -4.6338 H       
  41 H41           -4.4719     2.3591    -5.1765 H       
  42 H42           -6.6037     2.1509    -3.9621 H       
  43 H43           -6.8583     0.4443    -2.2054 H       
  44 H44           -4.9823    -1.0566    -1.6659 H       
  45 H45           -3.6616    -1.6271    -0.8931 H       
  46 H46           -3.5056    -0.0477     1.7118 H       
  47 H47           -4.2316     0.5675     0.2076 H       
  48 H48           -5.8511    -1.2881     0.2036 H       
  49 H49           -5.0996    -1.9688     1.6666 H       
  50 H50           -5.9425    -0.4030     1.7453 H       
  51 H51           -1.3283    -2.9339     2.2983 H       
  52 H52           -1.5627    -1.1818     2.0898 H       
  53 H53           -1.9746    -5.3664    -1.4895 H       
  54 H54           -2.8980    -5.7630    -3.7344 H       
  55 H55           -5.9647    -2.8888    -3.0018 H       
  56 H56           -5.0612    -2.4820    -0.7506 H       
  57 H57           -5.7852    -5.3980    -4.8300 H       
  58 H58           -5.5200    -3.6877    -5.2456 H       
  59 H59           -4.2404    -4.8866    -5.5514 H       
  60 H60           -3.8569    -1.3793     3.0098 H       
  61 H61           -3.6225    -3.1314     3.2182 H       
  62 H62           -1.7248    -2.6949     4.7535 H       
  63 H63           -1.9593    -0.9428     4.5451 H       
  64 H64           -3.9984    -2.7872     5.6072 H       
  65 H65           -3.0629    -1.7596     6.5208 H       
@<TRIPOS>BOND
   1    1    2 1
   2    1    7 2
   3    1    6 1
   4    2    3 1
   5    2    9 1
   6    3    4 2
   7    4    5 1
   8    4   18 1
   9    5    6 am
  10    5   11 1
  11    6   10 2
  12    7    8 1
  13    7   36 1
  14    8    9 2
  15    8   35 1
  16    9   37 1
  17   11   12 1
  18   11   38 1
  19   11   39 1
  20   12   13 ar
  21   12   17 ar
  22   13   14 ar
  23   13   40 1
  24   14   15 ar
  25   14   41 1
  26   15   16 ar
  27   15   42 1
  28   16   17 ar
  29   16   43 1
  30   17   44 1
  31   18   19 1
  32   18   20 1
  33   18   45 1
  34   19   22 1
  35   19   23 am
  36   20   21 1
  37   20   46 1
  38   20   47 1
  39   21   48 1
  40   21   49 1
  41   21   50 1
  42   22   32 1
  43   22   51 1
  44   22   52 1
  45   23   24 1
  46   23   25 2
  47   24   26 ar
  48   24   30 ar
  49   26   27 ar
  50   26   53 1
  51   27   28 ar
  52   27   54 1
  53   28   29 ar
  54   28   31 1
  55   29   30 ar
  56   29   55 1
  57   30   56 1
  58   31   57 1
  59   31   58 1
  60   31   59 1
  61   32   33 1
  62   32   60 1
  63   32   61 1
  64   33   34 1
  65   33   62 1
  66   33   63 1
  67   34   64 1
  68   34   65 1

#	End of record

