#	Name: ASD01913072
#	Creating user name:	WinNT
#	Creation time:	15. 06. 2019 20:00

#	Modifying user name:	WinNT
#	Modification time:	15. 06. 2019 20:00

#	Program:	/corina/corina34_cracker 3.40 0067  02.08.2006

@<TRIPOS>MOLECULE
ASD01913072
  35   37    0    0    0
SMALL
NO_CHARGES


@<TRIPOS>ATOM
   1 N1            -0.0169     1.3965     0.0097 N.2     
   2 N2             0.0021    -0.0041     0.0020 N.pl3   
   3 C3             1.2284     1.8226     0.0001 C.2     
   4 C4             2.0722     0.6950    -0.0140 C.2     
   5 C5             1.2909    -0.4070    -0.0125 C.2     
   6 C6             1.7727    -1.8348    -0.0243 C.3     
   7 C7             1.6660     3.2408     0.0031 C.ar    
   8 C8             0.8239    -2.7002     0.8075 C.3     
   9 C9             1.8034    -2.3508    -1.4643 C.3     
  10 C10            2.2926    -3.8005    -1.4763 C.3     
  11 C11            1.3437    -4.6658    -0.6446 C.3     
  12 C12            1.3131    -4.1498     0.7955 C.3     
  13 C13            0.7202     4.2638     0.0177 C.ar    
  14 C14            1.1315     5.5809     0.0209 C.ar    
  15 C15            2.4827     5.8868     0.0097 C.ar    
  16 C16            3.4265     4.8727    -0.0048 C.ar    
  17 C17            3.0239     3.5528    -0.0028 C.ar    
  18 F18            2.8811     7.1777     0.0124 F       
  19 H19           -0.7755    -0.5839     0.0063 H       
  20 H20            3.1521     0.7089    -0.0249 H       
  21 H21            2.7753    -1.8835     0.4005 H       
  22 H22            0.8020    -2.3326     1.8334 H       
  23 H23           -0.1788    -2.6515     0.3827 H       
  24 H24            0.8007    -2.3022    -1.8891 H       
  25 H25            2.4793    -1.7343    -2.0569 H       
  26 H26            2.3144    -4.1681    -2.5022 H       
  27 H27            3.2952    -3.8491    -1.0515 H       
  28 H28            0.3411    -4.6172    -1.0694 H       
  29 H29            1.6923    -5.6986    -0.6531 H       
  30 H30            2.3157    -4.1984     1.2203 H       
  31 H31            0.6371    -4.7663     1.3880 H       
  32 H32           -0.3333     4.0262     0.0261 H       
  33 H33            0.3990     6.3745     0.0318 H       
  34 H34            4.4788     5.1155    -0.0136 H       
  35 H35            3.7603     2.7629    -0.0138 H       
@<TRIPOS>BOND
   1    1    2 1
   2    1    3 2
   3    2    5 1
   4    2   19 1
   5    3    4 1
   6    3    7 1
   7    4    5 2
   8    4   20 1
   9    5    6 1
  10    6    8 1
  11    6    9 1
  12    6   21 1
  13    7   13 ar
  14    7   17 ar
  15    8   12 1
  16    8   22 1
  17    8   23 1
  18    9   10 1
  19    9   24 1
  20    9   25 1
  21   10   11 1
  22   10   26 1
  23   10   27 1
  24   11   12 1
  25   11   28 1
  26   11   29 1
  27   12   30 1
  28   12   31 1
  29   13   14 ar
  30   13   32 1
  31   14   15 ar
  32   14   33 1
  33   15   16 ar
  34   15   18 1
  35   16   17 ar
  36   16   34 1
  37   17   35 1

#	End of record

