#	Name: ASD00111048
#	Creating user name:	WinNT
#	Creation time:	15. 06. 2019 18:30

#	Modifying user name:	WinNT
#	Modification time:	15. 06. 2019 18:30

#	Program:	/corina/corina34_cracker 3.40 0067  02.08.2006

@<TRIPOS>MOLECULE
ASD00111048
  37   39    0    0    0
SMALL
NO_CHARGES


@<TRIPOS>ATOM
   1 C1            -0.0168     1.3890     0.0097 C.ar    
   2 C2             0.0021    -0.0041     0.0020 C.ar    
   3 C3            -1.1851    -0.7099     0.0095 C.ar    
   4 C4            -2.3895    -0.0289     0.0245 C.ar    
   5 C5            -2.4136     1.3455     0.0323 C.ar    
   6 C6            -1.2360     2.0656     0.0308 C.ar    
   7 C7            -3.6903    -0.8057     0.0314 C.3     
   8 C8            -4.3533    -0.6220     1.4000 C.3     
   9 N9            -5.1373     0.6017     1.4355 N.3     
  10 C10           -4.3961     1.8522     1.4156 C.3     
  11 C11           -3.7407     2.0761     0.0484 C.3     
  12 C12           -3.5085     3.5721    -0.1734 C.3     
  13 C13            1.2566     2.1505     0.0016 C.ar    
  14 C14            2.2641     1.8393     0.9144 C.ar    
  15 C15            1.4528     3.1752    -0.9215 C.ar    
  16 C16            2.6394     3.8805    -0.9246 C.ar    
  17 C17            3.6335     3.5716    -0.0139 C.ar    
  18 C18            3.4473     2.5518     0.9019 C.ar    
  19 Cl19           2.0314     0.5596     2.0642 Cl      
  20 H20            0.9444    -0.5317    -0.0102 H       
  21 H21           -1.1734    -1.7898     0.0034 H       
  22 H22           -1.2588     3.1454     0.0370 H       
  23 H23           -4.3489    -0.4261    -0.7498 H       
  24 H24           -3.4877    -1.8629    -0.1398 H       
  25 H25           -5.0062    -1.4719     1.5989 H       
  26 H26           -3.5819    -0.5760     2.1687 H       
  27 H27           -5.8524     0.5939     0.7237 H       
  28 H28           -5.0778     2.6764     1.6255 H       
  29 H29           -3.6231     1.8230     2.1835 H       
  30 H30           -4.3862     1.6835    -0.7373 H       
  31 H31           -2.8544     3.9581     0.6084 H       
  32 H32           -3.0424     3.7271    -1.1465 H       
  33 H33           -4.4633     4.0968    -0.1402 H       
  34 H34            0.6778     3.4172    -1.6338 H       
  35 H35            2.7920     4.6750    -1.6400 H       
  36 H36            4.5602     4.1260    -0.0206 H       
  37 H37            4.2268     2.3151     1.6110 H       
@<TRIPOS>BOND
   1    1    2 ar
   2    1   13 1
   3    1    6 ar
   4    2    3 ar
   5    2   20 1
   6    3    4 ar
   7    3   21 1
   8    4    5 ar
   9    4    7 1
  10    5    6 ar
  11    5   11 1
  12    6   22 1
  13    7    8 1
  14    7   23 1
  15    7   24 1
  16    8    9 1
  17    8   25 1
  18    8   26 1
  19    9   10 1
  20    9   27 1
  21   10   11 1
  22   10   28 1
  23   10   29 1
  24   11   12 1
  25   11   30 1
  26   12   31 1
  27   12   32 1
  28   12   33 1
  29   13   14 ar
  30   13   15 ar
  31   14   19 1
  32   14   18 ar
  33   15   16 ar
  34   15   34 1
  35   16   17 ar
  36   16   35 1
  37   17   18 ar
  38   17   36 1
  39   18   37 1

#	End of record

