#	Name: ASD07480046
#	Creating user name:	WinNT
#	Creation time:	15. 06. 2019 21:11

#	Modifying user name:	WinNT
#	Modification time:	15. 06. 2019 21:11

#	Program:	/corina/corina34_cracker 3.40 0067  02.08.2006

@<TRIPOS>MOLECULE
ASD07480046
  55   58    0    0    0
SMALL
NO_CHARGES


@<TRIPOS>ATOM
   1 C1             0.2007     1.7491     0.2057 C.ar    
   2 C2             0.4345     0.4142    -0.1285 C.ar    
   3 N3            -0.5341    -0.3392    -0.6064 N.ar    
   4 C4            -1.7544     0.1258    -0.7895 C.ar    
   5 C5            -2.0714     1.4440    -0.4827 C.ar    
   6 C6            -1.0838     2.2762     0.0305 C.ar    
   7 N7            -3.3705     1.9254    -0.6827 N.am    
   8 C8            -3.5618     3.1792    -1.1385 C.2     
   9 O9            -2.6127     3.9165    -1.3020 O.2     
  10 C10           -4.9550     3.6652    -1.4451 C.3     
  11 C11           -4.8938     5.0890    -1.9352 C.ar    
  12 C12            1.2915     2.5913     0.7421 C.2     
  13 C13            2.3613     1.9842     1.5432 C.2     
  14 O14            1.3022     3.7875     0.5195 O.2     
  15 C15            2.4256     0.6909     1.9792 C.2     
  16 C16            3.5824     2.6456     2.0320 C.ar    
  17 C17            4.2949     1.6634     2.7471 C.ar    
  18 N18            3.5649     0.5037     2.6906 N.pl3   
  19 C19            4.1174     3.9252     1.9345 C.ar    
  20 N20            5.2792     4.1703     2.5199 N.ar    
  21 C21            5.9212     3.2257     3.1830 C.ar    
  22 N22            5.4542     2.0011     3.3023 N.ar    
  23 C23            3.9606    -0.7619     3.3135 C.3     
  24 C24            4.0969    -1.8398     2.2363 C.3     
  25 C25            2.8963    -1.1860     4.3275 C.3     
  26 O26            4.5946    -3.0425     2.8261 O.3     
  27 C27           -4.7550     5.3497    -3.2857 C.ar    
  28 C28           -4.6989     6.6556    -3.7353 C.ar    
  29 C29           -4.7821     7.7009    -2.8345 C.ar    
  30 C30           -4.9218     7.4402    -1.4842 C.ar    
  31 C31           -4.9823     6.1343    -1.0350 C.ar    
  32 C32           -4.7199     9.1247    -3.3246 C.3     
  33 F33           -6.0128     9.5763    -3.6103 F       
  34 F34           -4.1512     9.9340    -2.3353 F       
  35 F35           -3.9381     9.1853    -4.4831 F       
  36 H36            1.4205    -0.0053     0.0061 H       
  37 H37           -2.5188    -0.5272    -1.1841 H       
  38 H38           -1.2996     3.3049     0.2788 H       
  39 H39           -4.1331     1.3566    -0.4933 H       
  40 H40           -5.3985     3.0344    -2.2154 H       
  41 H41           -5.5633     3.6177    -0.5418 H       
  42 H42            1.6813    -0.0676     1.7867 H       
  43 H43            3.5971     4.7016     1.3933 H       
  44 H44            6.8665     3.4679     3.6458 H       
  45 H45            4.9162    -0.6335     3.8219 H       
  46 H46            3.1218    -2.0313     1.7884 H       
  47 H47            4.7895    -1.4989     1.4667 H       
  48 H48            1.9407    -1.3144     3.8191 H       
  49 H49            3.1907    -2.1276     4.7910 H       
  50 H50            2.7992    -0.4180     5.0950 H       
  51 H51            4.7063    -3.7707     2.1998 H       
  52 H52           -4.6900     4.5330    -3.9894 H       
  53 H53           -4.5897     6.8593    -4.7903 H       
  54 H54           -4.9865     8.2569    -0.7804 H       
  55 H55           -5.0915     5.9306     0.0200 H       
@<TRIPOS>BOND
   1    1    2 ar
   2    1   12 1
   3    1    6 ar
   4    2    3 ar
   5    2   36 1
   6    3    4 ar
   7    4    5 ar
   8    4   37 1
   9    5    6 ar
  10    5    7 1
  11    6   38 1
  12    7    8 am
  13    7   39 1
  14    8    9 2
  15    8   10 1
  16   10   11 1
  17   10   40 1
  18   10   41 1
  19   11   27 ar
  20   11   31 ar
  21   12   13 1
  22   12   14 2
  23   13   15 2
  24   13   16 1
  25   15   18 1
  26   15   42 1
  27   16   17 ar
  28   16   19 ar
  29   17   18 1
  30   17   22 ar
  31   18   23 1
  32   19   20 ar
  33   19   43 1
  34   20   21 ar
  35   21   22 ar
  36   21   44 1
  37   23   24 1
  38   23   25 1
  39   23   45 1
  40   24   26 1
  41   24   46 1
  42   24   47 1
  43   25   48 1
  44   25   49 1
  45   25   50 1
  46   26   51 1
  47   27   28 ar
  48   27   52 1
  49   28   29 ar
  50   28   53 1
  51   29   30 ar
  52   29   32 1
  53   30   31 ar
  54   30   54 1
  55   31   55 1
  56   32   33 1
  57   32   34 1
  58   32   35 1

#	End of record

