#	Name: ASD03331227
#	Creating user name:	WinNT
#	Creation time:	15. 06. 2019 20:38

#	Modifying user name:	WinNT
#	Modification time:	15. 06. 2019 20:38

#	Program:	/corina/corina34_cracker 3.40 0067  02.08.2006

@<TRIPOS>MOLECULE
ASD03331227
  51   54    0    0    0
SMALL
NO_CHARGES


@<TRIPOS>ATOM
   1 N1            -0.0473     1.4520     0.2797 N.am    
   2 C2            -0.0348     0.0079     0.5583 C.3     
   3 C3             0.7363    -0.6973    -0.5626 C.3     
   4 N4             2.0620    -0.0805    -0.7039 N.3     
   5 C5             1.9540     1.3281    -1.1068 C.3     
   6 C6             1.2329     2.1163    -0.0083 C.3     
   7 C7            -1.2020     2.1471     0.2828 C.2     
   8 O8            -2.2608     1.5664     0.4248 O.2     
   9 N9            -1.1831     3.4859     0.1284 N.am    
  10 C10           -2.3851     4.1963     0.0330 C.ar    
  11 C11           -2.4015     5.5679     0.2480 C.ar    
  12 C12           -3.5894     6.2663     0.1526 C.ar    
  13 C13           -4.7613     5.6010    -0.1566 C.ar    
  14 C14           -4.7483     4.2348    -0.3714 C.ar    
  15 C15           -3.5631     3.5317    -0.2827 C.ar    
  16 C16            2.8961    -0.8357    -1.6482 C.3     
  17 C17            4.1445    -0.0496    -1.9557 C.ar    
  18 C18            5.2850    -0.2188    -1.1743 C.ar    
  19 N19            6.3891     0.4471    -1.4118 N.ar    
  20 C20            6.4697     1.3221    -2.4189 C.ar    
  21 C21            5.3456     1.5424    -3.2532 C.ar    
  22 C22            4.1604     0.8256    -3.0045 C.ar    
  23 C23            5.4353     2.4635    -4.3096 C.ar    
  24 C24            7.6562     2.0339    -2.6687 C.ar    
  25 C25            7.7081     2.9186    -3.7013 C.ar    
  26 C26            6.6011     3.1342    -4.5200 C.ar    
  27 C27           -1.1247     6.2938     0.5856 C.3     
  28 H28            0.4572    -0.1765     1.5133 H       
  29 H29           -1.0575    -0.3675     0.5915 H       
  30 H30            0.8507    -1.7531    -0.3168 H       
  31 H31            0.1876    -0.5989    -1.4992 H       
  32 H32            2.9516     1.7412    -1.2558 H       
  33 H33            1.3884     1.3983    -2.0359 H       
  34 H34            1.0482     3.1349    -0.3496 H       
  35 H35            1.8467     2.1346     0.8923 H       
  36 H36           -0.3364     3.9570     0.0834 H       
  37 H37           -3.6029     7.3331     0.3201 H       
  38 H38           -5.6889     6.1492    -0.2303 H       
  39 H39           -5.6653     3.7179    -0.6128 H       
  40 H40           -3.5528     2.4655    -0.4549 H       
  41 H41            3.1697    -1.7936    -1.2057 H       
  42 H42            2.3385    -1.0069    -2.5690 H       
  43 H43            5.2591    -0.9170    -0.3506 H       
  44 H44            3.2853     0.9690    -3.6211 H       
  45 H45            4.5846     2.6384    -4.9514 H       
  46 H46            8.5230     1.8795    -2.0432 H       
  47 H47            8.6217     3.4632    -3.8889 H       
  48 H48            6.6695     3.8416    -5.3332 H       
  49 H49           -0.6427     6.6277    -0.3332 H       
  50 H50           -1.3520     7.1570     1.2111 H       
  51 H51           -0.4559     5.6216     1.1232 H       
@<TRIPOS>BOND
   1    1    2 1
   2    1    6 1
   3    1    7 am
   4    2    3 1
   5    2   28 1
   6    2   29 1
   7    3    4 1
   8    3   30 1
   9    3   31 1
  10    4    5 1
  11    4   16 1
  12    5    6 1
  13    5   32 1
  14    5   33 1
  15    6   34 1
  16    6   35 1
  17    7    8 2
  18    7    9 am
  19    9   10 1
  20    9   36 1
  21   10   11 ar
  22   10   15 ar
  23   11   12 ar
  24   11   27 1
  25   12   13 ar
  26   12   37 1
  27   13   14 ar
  28   13   38 1
  29   14   15 ar
  30   14   39 1
  31   15   40 1
  32   16   17 1
  33   16   41 1
  34   16   42 1
  35   17   18 ar
  36   17   22 ar
  37   18   19 ar
  38   18   43 1
  39   19   20 ar
  40   20   21 ar
  41   20   24 ar
  42   21   22 ar
  43   21   23 ar
  44   22   44 1
  45   23   26 ar
  46   23   45 1
  47   24   25 ar
  48   24   46 1
  49   25   26 ar
  50   25   47 1
  51   26   48 1
  52   27   49 1
  53   27   50 1
  54   27   51 1

#	End of record

