#	Name: ASD00071047
#	Creating user name:	WinNT
#	Creation time:	15. 06. 2019 18:30

#	Modifying user name:	WinNT
#	Modification time:	15. 06. 2019 18:30

#	Program:	/corina/corina34_cracker 3.40 0067  02.08.2006

@<TRIPOS>MOLECULE
ASD00071047
  36   38    0    0    0
SMALL
NO_CHARGES


@<TRIPOS>ATOM
   1 N1             2.6307     1.0879    -0.0583 N.ar    
   2 C2             2.4056    -0.1916     0.1582 C.ar    
   3 C3             1.1042    -0.7124     0.1899 C.ar    
   4 C4             0.0379     0.1127    -0.0062 C.ar    
   5 C5             0.2852     1.4812    -0.2374 C.ar    
   6 C6            -0.7678     2.3853    -0.4464 C.ar    
   7 C7            -0.4924     3.7024    -0.6667 C.ar    
   8 C8             0.8262     4.1631    -0.6873 C.ar    
   9 C9             1.8705     3.3094    -0.4881 C.ar    
  10 C10            1.6230     1.9462    -0.2574 C.ar    
  11 N11            3.4814    -1.0441     0.3591 N.pl3   
  12 C12            0.8853    -2.1823     0.4399 C.3     
  13 C13            0.8589    -2.4408     1.9243 C.ar    
  14 C14           -0.3028    -2.2135     2.6482 C.ar    
  15 C15           -0.3238    -2.4525     4.0144 C.ar    
  16 C16            0.8115    -2.9161     4.6510 C.ar    
  17 C17            1.9678    -3.1413     3.9276 C.ar    
  18 C18            1.9895    -2.9097     2.5644 C.ar    
  19 O19           -1.4180    -1.7571     2.0198 O.3     
  20 C20           -2.5774    -1.5457     2.8280 C.3     
  21 F21            1.0702     5.4733    -0.9082 F       
  22 F22           -1.5067     4.5719    -0.8678 F       
  23 H23           -0.9711    -0.2719     0.0146 H       
  24 H24           -1.7908     2.0394    -0.4332 H       
  25 H25            2.8847     3.6802    -0.5076 H       
  26 H26            4.3779    -0.6828     0.4412 H       
  27 H27            3.3372    -2.0016     0.4174 H       
  28 H28           -0.0644    -2.4880     0.0009 H       
  29 H29            1.6957    -2.7526    -0.0139 H       
  30 H30           -1.2267    -2.2760     4.5801 H       
  31 H31            0.7956    -3.1023     5.7147 H       
  32 H32            2.8543    -3.5030     4.4272 H       
  33 H33            2.8927    -3.0910     2.0007 H       
  34 H34           -2.8694    -2.4851     3.2973 H       
  35 H35           -2.3533    -0.8086     3.5991 H       
  36 H36           -3.3938    -1.1820     2.2040 H       
@<TRIPOS>BOND
   1    1    2 ar
   2    1   10 ar
   3    2    3 ar
   4    2   11 1
   5    3    4 ar
   6    3   12 1
   7    4    5 ar
   8    4   23 1
   9    5    6 ar
  10    5   10 ar
  11    6    7 ar
  12    6   24 1
  13    7    8 ar
  14    7   22 1
  15    8    9 ar
  16    8   21 1
  17    9   10 ar
  18    9   25 1
  19   11   26 1
  20   11   27 1
  21   12   13 1
  22   12   28 1
  23   12   29 1
  24   13   14 ar
  25   13   18 ar
  26   14   15 ar
  27   14   19 1
  28   15   16 ar
  29   15   30 1
  30   16   17 ar
  31   16   31 1
  32   17   18 ar
  33   17   32 1
  34   18   33 1
  35   19   20 1
  36   20   34 1
  37   20   35 1
  38   20   36 1

#	End of record

