#	Name: ASD01913004
#	Creating user name:	WinNT
#	Creation time:	15. 06. 2019 20:00

#	Modifying user name:	WinNT
#	Modification time:	15. 06. 2019 20:00

#	Program:	/corina/corina34_cracker 3.40 0067  02.08.2006

@<TRIPOS>MOLECULE
ASD01913004
  46   49    0    0    0
SMALL
NO_CHARGES


@<TRIPOS>ATOM
   1 C1             0.8486     1.3641     1.0348 C.2     
   2 C2             1.1207    -0.0232     1.2627 C.1     
   3 C3             1.3438    -1.1606     1.4496 C.1     
   4 C4             1.6158    -2.5479     1.6775 C.ar    
   5 C5             0.5782    -3.4205     2.0183 C.ar    
   6 C6             2.9195    -3.0375     1.5546 C.ar    
   7 C7             3.1736    -4.3749     1.7752 C.ar    
   8 C8             2.1419    -5.2317     2.1169 C.ar    
   9 C9             0.8480    -4.7553     2.2357 C.ar    
  10 N10            1.7314     2.2646     0.7139 N.2     
  11 C11            1.3149     3.5071     0.5395 C.2     
  12 C12           -0.0126     3.6740     0.7190 C.2     
  13 S13           -0.7357     2.1257     1.1362 S.3     
  14 C14            2.2471     4.6554     0.1758 C.3     
  15 C15            1.4239     5.8059    -0.4066 C.3     
  16 N16            0.2612     6.0520     0.4596 N.am    
  17 C17           -0.7494     4.9866     0.5713 C.3     
  18 C18            0.1251     7.2137     1.1292 C.2     
  19 O19            1.0678     7.9760     1.2219 O.2     
  20 N20           -1.0559     7.5305     1.6960 N.am    
  21 C21           -1.1389     8.5892     2.7114 C.3     
  22 C22           -2.2047     9.6022     2.2815 C.3     
  23 C23           -3.5247     8.8707     2.0268 C.3     
  24 C24           -3.3379     7.8568     0.8958 C.3     
  25 C25           -2.2859     6.8279     1.3059 C.3     
  26 F26           -3.9196     8.2029     3.1910 F       
  27 F27           -4.5085     9.7971     1.6646 F       
  28 H28           -0.4321    -3.0502     2.1114 H       
  29 H29            3.7255    -2.3702     1.2873 H       
  30 H30            4.1802    -4.7546     1.6807 H       
  31 H31            2.3469    -6.2782     2.2878 H       
  32 H32            0.0480    -5.4300     2.5028 H       
  33 H33            2.7697     4.9972     1.0692 H       
  34 H34            2.9722     4.3156    -0.5638 H       
  35 H35            2.0382     6.7050    -0.4562 H       
  36 H36            1.0832     5.5403    -1.4073 H       
  37 H37           -1.3660     4.9657    -0.3273 H       
  38 H38           -1.3752     5.1604     1.4466 H       
  39 H39           -1.4149     8.1537     3.6717 H       
  40 H40           -0.1740     9.0887     2.7981 H       
  41 H41           -2.3444    10.3405     3.0711 H       
  42 H42           -1.8838    10.1024     1.3678 H       
  43 H43           -4.2842     7.3528     0.6992 H       
  44 H44           -3.0063     8.3734    -0.0049 H       
  45 H45           -2.0782     6.1634     0.4671 H       
  46 H46           -2.6529     6.2475     2.1524 H       
@<TRIPOS>BOND
   1    1    2 1
   2    1   10 2
   3    1   13 1
   4    2    3 3
   5    3    4 1
   6    4    5 ar
   7    4    6 ar
   8    5    9 ar
   9    5   28 1
  10    6    7 ar
  11    6   29 1
  12    7    8 ar
  13    7   30 1
  14    8    9 ar
  15    8   31 1
  16    9   32 1
  17   10   11 1
  18   11   12 2
  19   11   14 1
  20   12   13 1
  21   12   17 1
  22   14   15 1
  23   14   33 1
  24   14   34 1
  25   15   16 1
  26   15   35 1
  27   15   36 1
  28   16   17 1
  29   16   18 am
  30   17   37 1
  31   17   38 1
  32   18   19 2
  33   18   20 am
  34   20   21 1
  35   20   25 1
  36   21   22 1
  37   21   39 1
  38   21   40 1
  39   22   23 1
  40   22   41 1
  41   22   42 1
  42   23   24 1
  43   23   26 1
  44   23   27 1
  45   24   25 1
  46   24   43 1
  47   24   44 1
  48   25   45 1
  49   25   46 1

#	End of record

