#	Name: ASD01914053
#	Creating user name:	WinNT
#	Creation time:	15. 06. 2019 20:02

#	Modifying user name:	WinNT
#	Modification time:	15. 06. 2019 20:02

#	Program:	/corina/corina34_cracker 3.40 0067  02.08.2006

@<TRIPOS>MOLECULE
ASD01914053
  38   40    0    0    0
SMALL
NO_CHARGES


@<TRIPOS>ATOM
   1 C1            -0.0167     1.3784     0.0096 C.ar    
   2 C2             0.0021    -0.0041     0.0020 C.ar    
   3 C3             1.2074    -0.6814    -0.0131 C.ar    
   4 C4             2.3802     1.4093    -0.0131 C.ar    
   5 C5             1.1695     2.0865     0.0021 C.ar    
   6 O6             3.5484     2.1036    -0.0201 O.3     
   7 C7             4.7565     1.3405    -0.0357 C.3     
   8 C8             5.9399     2.2735    -0.0414 C.ar    
   9 N9             7.1605     1.7732    -0.0557 N.ar    
  10 C10            8.2282     2.5441    -0.0617 C.ar    
  11 C11            8.1003     3.9335    -0.0531 C.ar    
  12 C12            6.8172     4.4945    -0.0379 C.ar    
  13 C13            5.7284     3.6408    -0.0374 C.ar    
  14 C14            9.2986     4.7987    -0.0594 C.2     
  15 N15           10.5281     4.2467    -0.0736 N.am    
  16 O16            9.1753     6.0079    -0.0518 O.2     
  17 C17            2.3963     0.0221    -0.0207 C.ar    
  18 C18           11.6585     5.0628    -0.0795 C.ar    
  19 N19           11.5177     6.3784    -0.0712 N.ar    
  20 C20           13.8466     6.6846    -0.0903 C.ar    
  21 C21           14.0400     5.3096    -0.0937 C.ar    
  22 C22           12.9262     4.4861    -0.0884 C.ar    
  23 C23           12.5608     7.1867    -0.0759 C.ar    
  24 F24           13.0677     3.1425    -0.0912 F       
  25 H25           -0.9595     1.9052     0.0169 H       
  26 H26           -0.9263    -0.5558     0.0083 H       
  27 H27            1.2194    -1.7613    -0.0187 H       
  28 H28            1.1543     3.1664     0.0077 H       
  29 H29            4.7976     0.7070     0.8504 H       
  30 H30            4.7810     0.7171    -0.9295 H       
  31 H31            9.2113     2.0970    -0.0731 H       
  32 H32            6.6811     5.5658    -0.0306 H       
  33 H33            4.7240     4.0376    -0.0263 H       
  34 H34           10.6265     3.2818    -0.0796 H       
  35 H35            3.3375    -0.5074    -0.0325 H       
  36 H36           14.6937     7.3545    -0.0940 H       
  37 H37           15.0358     4.8918    -0.1052 H       
  38 H38           12.4064     8.2556    -0.0688 H       
@<TRIPOS>BOND
   1    1    2 ar
   2    1    5 ar
   3    1   25 1
   4    2    3 ar
   5    2   26 1
   6    3   17 ar
   7    3   27 1
   8    4    5 ar
   9    4    6 1
  10    4   17 ar
  11    5   28 1
  12    6    7 1
  13    7    8 1
  14    7   29 1
  15    7   30 1
  16    8    9 ar
  17    8   13 ar
  18    9   10 ar
  19   10   11 ar
  20   10   31 1
  21   11   12 ar
  22   11   14 1
  23   12   13 ar
  24   12   32 1
  25   13   33 1
  26   14   15 am
  27   14   16 2
  28   15   18 1
  29   15   34 1
  30   17   35 1
  31   18   19 ar
  32   18   22 ar
  33   19   23 ar
  34   20   21 ar
  35   20   23 ar
  36   20   36 1
  37   21   22 ar
  38   21   37 1
  39   22   24 1
  40   23   38 1

#	End of record

