#	Name: ASD01914556
#	Creating user name:	WinNT
#	Creation time:	15. 06. 2019 20:03

#	Modifying user name:	WinNT
#	Modification time:	15. 06. 2019 20:03

#	Program:	/corina/corina34_cracker 3.40 0067  02.08.2006

@<TRIPOS>MOLECULE
ASD01914556
  28   30    0    0    0
SMALL
NO_CHARGES


@<TRIPOS>ATOM
   1 C1            -0.0145     1.3687     0.1510 C.ar    
   2 C2             0.0004    -0.0172     0.1933 C.ar    
   3 N3            -1.1130    -0.7199     0.1898 N.ar    
   4 C4            -2.3050    -0.1405     0.1461 C.ar    
   5 C5            -2.3947     1.2630     0.1021 C.ar    
   6 C6            -1.2286     2.0311     0.1102 C.ar    
   7 O7            -3.5584    -0.6359     0.1333 O.3     
   8 C8            -4.4765     0.3560     0.0834 C.2     
   9 C9            -3.8269     1.5770     0.0611 C.2     
  10 C10           -5.8780     0.1738     0.0579 C.2     
  11 C11           -6.4446    -1.1873    -0.0556 C.ar    
  12 C12           -7.8221    -1.3847     0.0605 C.ar    
  13 C13           -5.6048    -2.2789    -0.2851 C.ar    
  14 C14           -6.1382    -3.5457    -0.3901 C.ar    
  15 C15           -7.5061    -3.7368    -0.2687 C.ar    
  16 C16           -8.3451    -2.6556    -0.0461 C.ar    
  17 O17           -6.6193     1.1384     0.1295 O.2     
  18 N18           -4.4068     2.8319     0.0107 N.pl3   
  19 F19           -8.0239    -4.9803    -0.3728 F       
  20 Br20           1.6063     2.3428     0.1569 Br      
  21 H21            0.9486    -0.5329     0.2297 H       
  22 H22           -1.2729     3.1097     0.0770 H       
  23 H23           -8.4764    -0.5432     0.2339 H       
  24 H24           -4.5392    -2.1310    -0.3805 H       
  25 H25           -5.4895    -4.3907    -0.5675 H       
  26 H26           -9.4099    -2.8099     0.0481 H       
  27 H27           -5.3725     2.9193    -0.0136 H       
  28 H28           -3.8476     3.6244    -0.0004 H       
@<TRIPOS>BOND
   1    1    2 ar
   2    1   20 1
   3    1    6 ar
   4    2    3 ar
   5    2   21 1
   6    3    4 ar
   7    4    5 ar
   8    4    7 1
   9    5    6 ar
  10    5    9 1
  11    6   22 1
  12    7    8 1
  13    8    9 2
  14    8   10 1
  15    9   18 1
  16   10   11 1
  17   10   17 2
  18   11   12 ar
  19   11   13 ar
  20   12   16 ar
  21   12   23 1
  22   13   14 ar
  23   13   24 1
  24   14   15 ar
  25   14   25 1
  26   15   16 ar
  27   15   19 1
  28   16   26 1
  29   18   27 1
  30   18   28 1

#	End of record

