#	Name: ASD01410282
#	Creating user name:	WinNT
#	Creation time:	15. 06. 2019 19:17

#	Modifying user name:	WinNT
#	Modification time:	15. 06. 2019 19:17

#	Program:	/corina/corina34_cracker 3.40 0067  02.08.2006

@<TRIPOS>MOLECULE
ASD01410282
  69   73    0    0    0
SMALL
NO_CHARGES


@<TRIPOS>ATOM
   1 C1             0.4914     1.6101     0.0907 C.2     
   2 C2             1.5010     0.7600     0.3374 C.2     
   3 C3             1.0602    -0.5484    -0.1645 C.2     
   4 C4            -0.1884    -0.3474    -0.6692 C.2     
   5 O5            -0.5074     0.9430    -0.5074 O.3     
   6 N6             1.2855    -3.0129    -0.2334 N.2     
   7 C7             1.8149    -1.8181    -0.1293 C.2     
   8 N8             3.1726    -1.9235     0.0164 N.pl3   
   9 C9             3.4837    -3.2674    -0.0007 C.ar    
  10 C10            2.2636    -3.9506    -0.1614 C.ar    
  11 C11            4.6735    -3.9787     0.1034 C.ar    
  12 C12            4.6645    -5.3425     0.0498 C.ar    
  13 C13            3.4595    -6.0392    -0.1103 C.ar    
  14 C14            2.2583    -5.3446    -0.2152 C.ar    
  15 C15            6.1979     0.2266    -0.7518 C.3     
  16 C16            6.8360     0.1728     0.6378 C.3     
  17 C17            5.7454     0.2893     1.7045 C.3     
  18 C18            4.7570    -0.8686     1.5520 C.3     
  19 C19            4.1190    -0.8148     0.1624 C.3     
  20 C20            5.2096    -0.9313    -0.9043 C.3     
  21 C21            3.4641    -7.5148    -0.1672 C.2     
  22 N22            4.6264    -8.1894    -0.0652 N.am    
  23 O23            2.4195    -8.1210    -0.3060 O.2     
  24 C24            4.6310    -9.6534    -0.1216 C.3     
  25 C25            4.6650   -10.1073    -1.5824 C.3     
  26 C26            5.8467   -10.1800     0.5965 C.2     
  27 N27            6.0613   -11.5083     0.6733 N.am    
  28 O28            6.6320    -9.4084     1.1054 O.2     
  29 C29            7.8326   -13.1433     0.7539 C.ar    
  30 C30            8.9875   -13.6252     1.3263 C.ar    
  31 C31            9.5580   -12.9565     2.4161 C.ar    
  32 C32            8.9500   -11.7996     2.9185 C.ar    
  33 C33            7.7950   -11.3253     2.3400 C.ar    
  34 C34            7.2317   -11.9930     1.2566 C.ar    
  35 C35           11.3397   -12.8205     4.0825 C.2     
  36 C36           10.7909   -13.4674     3.0310 C.2     
  37 C37           12.5292   -13.3136     4.6757 C.2     
  38 O38           13.0558   -14.3190     4.2380 O.2     
  39 O39           13.0773   -12.6675     5.7259 O.3     
  40 H40            0.4829     2.6613     0.3382 H       
  41 H41            2.4448     0.9910     0.8089 H       
  42 H42           -0.8148    -1.1008    -1.1236 H       
  43 H43            5.6076    -3.4507     0.2266 H       
  44 H44            5.5929    -5.8884     0.1309 H       
  45 H45            1.3289    -5.8807    -0.3386 H       
  46 H46            5.6706     1.1728    -0.8732 H       
  47 H47            6.9749     0.1435    -1.5118 H       
  48 H48            7.3633    -0.7734     0.7591 H       
  49 H49            7.5401     0.9977     0.7464 H       
  50 H50            6.1999     0.2510     2.6945 H       
  51 H51            5.2181     1.2355     1.5832 H       
  52 H52            5.2843    -1.8148     1.6733 H       
  53 H53            3.9800    -0.7856     2.3120 H       
  54 H54            3.5917     0.1314     0.0411 H       
  55 H55            4.7550    -0.8931    -1.8943 H       
  56 H56            5.7369    -1.8775    -0.7830 H       
  57 H57            5.4599    -7.7058     0.0455 H       
  58 H58            3.7308   -10.0382     0.3575 H       
  59 H59            3.7857    -9.7264    -2.1018 H       
  60 H60            5.5652    -9.7224    -2.0616 H       
  61 H61            4.6684   -11.1965    -1.6244 H       
  62 H62            5.4017   -12.1272     0.3228 H       
  63 H63            7.3942   -13.6560    -0.0896 H       
  64 H64            9.4529   -14.5181     0.9357 H       
  65 H65            9.3864   -11.2808     3.7592 H       
  66 H66            7.3253   -10.4330     2.7269 H       
  67 H67           10.8722   -11.9279     4.4711 H       
  68 H68           11.2583   -14.3601     2.6423 H       
  69 H69           13.8858   -13.0781     6.0619 H       
@<TRIPOS>BOND
   1    1    2 2
   2    1    5 1
   3    1   40 1
   4    2    3 1
   5    2   41 1
   6    3    4 2
   7    3    7 1
   8    4    5 1
   9    4   42 1
  10    6    7 2
  11    6   10 1
  12    7    8 1
  13    8    9 1
  14    8   19 1
  15    9   10 ar
  16    9   11 ar
  17   10   14 ar
  18   11   12 ar
  19   11   43 1
  20   12   13 ar
  21   12   44 1
  22   13   14 ar
  23   13   21 1
  24   14   45 1
  25   15   16 1
  26   15   20 1
  27   15   46 1
  28   15   47 1
  29   16   17 1
  30   16   48 1
  31   16   49 1
  32   17   18 1
  33   17   50 1
  34   17   51 1
  35   18   19 1
  36   18   52 1
  37   18   53 1
  38   19   20 1
  39   19   54 1
  40   20   55 1
  41   20   56 1
  42   21   22 am
  43   21   23 2
  44   22   24 1
  45   22   57 1
  46   24   25 1
  47   24   26 1
  48   24   58 1
  49   25   59 1
  50   25   60 1
  51   25   61 1
  52   26   27 am
  53   26   28 2
  54   27   34 1
  55   27   62 1
  56   29   30 ar
  57   29   34 ar
  58   29   63 1
  59   30   31 ar
  60   30   64 1
  61   31   32 ar
  62   31   36 1
  63   32   33 ar
  64   32   65 1
  65   33   34 ar
  66   33   66 1
  67   35   37 1
  68   35   36 2
  69   35   67 1
  70   36   68 1
  71   37   38 2
  72   37   39 1
  73   39   69 1

#	End of record

