#	Name: ASD06660083
#	Creating user name:	WinNT
#	Creation time:	15. 06. 2019 21:08

#	Modifying user name:	WinNT
#	Modification time:	15. 06. 2019 21:08

#	Program:	/corina/corina34_cracker 3.40 0067  02.08.2006

@<TRIPOS>MOLECULE
ASD06660083
  75   78    0    0    0
SMALL
NO_CHARGES


@<TRIPOS>ATOM
   1 C1             0.0649     1.6573     0.9355 C.2     
   2 C2             0.0089     0.2620     0.3687 C.3     
   3 C3            -1.0699     0.1944    -0.7141 C.3     
   4 O4             1.0856     2.2995     0.8601 O.2     
   5 O5            -1.0207     2.1886     1.5193 O.3     
   6 C6            -1.2169    -1.2284    -1.1886 C.ar    
   7 C7            -2.0891    -2.0846    -0.5417 C.ar    
   8 C8            -2.2262    -3.3891    -0.9739 C.ar    
   9 C9            -1.4869    -3.8408    -2.0597 C.ar    
  10 C10           -0.6117    -2.9780    -2.7072 C.ar    
  11 C11           -0.4836    -1.6731    -2.2733 C.ar    
  12 N12           -1.6228    -5.1596    -2.4991 N.3     
  13 C13           -0.7536    -5.4220    -3.6533 C.3     
  14 C14           -1.0342    -6.8249    -4.1965 C.3     
  15 C15           -0.7749    -7.8552    -3.0938 C.3     
  16 C16           -1.6573    -7.5308    -1.8853 C.3     
  17 C17           -1.3586    -6.1074    -1.4091 C.3     
  18 C18           -1.1070    -9.2336    -3.6044 C.2     
  19 N19           -0.9546   -10.3047    -2.8007 N.am    
  20 O20           -1.5114    -9.3791    -4.7382 O.2     
  21 C21           -1.2590   -11.5685    -3.2687 C.2     
  22 N22           -1.6878   -11.6973    -4.4796 N.2     
  23 C23           -2.0519   -12.9759    -5.0792 C.3     
  24 C24           -1.4025   -14.1325    -4.3161 C.3     
  25 C25           -1.6750   -13.9387    -2.8167 C.3     
  26 N26           -1.0894   -12.6443    -2.4306 N.pl3   
  27 N27            1.3083    -0.0806    -0.2145 N.am    
  28 C28            2.3339    -0.4340     0.5854 C.2     
  29 C29            3.6686    -0.6915     0.0054 C.ar    
  30 C30            4.0680    -1.9985    -0.2810 C.ar    
  31 C31            5.3145    -2.2325    -0.8219 C.ar    
  32 C32            6.1701    -1.1742    -1.0809 C.ar    
  33 C33            5.7796     0.1242    -0.7985 C.ar    
  34 C34            4.5327     0.3713    -0.2635 C.ar    
  35 O35            2.1611    -0.5408     1.7839 O.2     
  36 C36            4.1068     1.7853     0.0370 C.3     
  37 C37            3.1389    -3.1509     0.0010 C.3     
  38 C38            2.2057    -3.3578    -1.1937 C.3     
  39 Cl39           7.7381    -1.4768    -1.7615 Cl      
  40 H40           -0.2299    -0.4439     1.1641 H       
  41 H41           -2.0186     0.5405    -0.3039 H       
  42 H42           -0.7834     0.8292    -1.5526 H       
  43 H43           -0.9365     3.0866     1.8681 H       
  44 H44           -2.6633    -1.7330     0.3027 H       
  45 H45           -2.9073    -4.0575    -0.4680 H       
  46 H46           -0.0354    -3.3259    -3.5517 H       
  47 H47            0.1931    -1.0004    -2.7793 H       
  48 H48           -0.9510    -4.6849    -4.4316 H       
  49 H49            0.2897    -5.3539    -3.3451 H       
  50 H50           -2.0738    -6.8895    -4.5177 H       
  51 H51           -0.3780    -7.0252    -5.0434 H       
  52 H52            0.2740    -7.8176    -2.7996 H       
  53 H53           -2.7067    -7.6065    -2.1701 H       
  54 H54           -1.4462    -8.2355    -1.0809 H       
  55 H55           -0.3124    -6.0361    -1.1114 H       
  56 H56           -1.9955    -5.8682    -0.5574 H       
  57 H57           -0.6311   -10.1884    -1.8937 H       
  58 H58           -3.1355   -13.0904    -5.0512 H       
  59 H59           -1.7156   -12.9955    -6.1158 H       
  60 H60           -1.8317   -15.0780    -4.6478 H       
  61 H61           -0.3275   -14.1336    -4.4965 H       
  62 H62           -2.7494   -13.9333    -2.6329 H       
  63 H63           -1.2048   -14.7409    -2.2478 H       
  64 H64           -0.5966   -12.5514    -1.6003 H       
  65 H65            1.4306    -0.0533    -1.1764 H       
  66 H66            5.6245    -3.2429    -1.0439 H       
  67 H67            6.4511     0.9452    -1.0022 H       
  68 H68            4.3990     2.0443     1.0547 H       
  69 H69            4.5888     2.4667    -0.6640 H       
  70 H70            3.0244     1.8676    -0.0623 H       
  71 H71            3.7228    -4.0562     0.1670 H       
  72 H72            2.5477    -2.9318     0.8901 H       
  73 H73            1.4698    -4.1245    -0.9514 H       
  74 H74            1.6944    -2.4225    -1.4216 H       
  75 H75            2.7881    -3.6737    -2.0592 H       
@<TRIPOS>BOND
   1    1    2 1
   2    1    4 2
   3    1    5 1
   4    2    3 1
   5    2   27 1
   6    2   40 1
   7    3    6 1
   8    3   41 1
   9    3   42 1
  10    5   43 1
  11    6    7 ar
  12    6   11 ar
  13    7    8 ar
  14    7   44 1
  15    8    9 ar
  16    8   45 1
  17    9   10 ar
  18    9   12 1
  19   10   11 ar
  20   10   46 1
  21   11   47 1
  22   12   13 1
  23   12   17 1
  24   13   14 1
  25   13   48 1
  26   13   49 1
  27   14   15 1
  28   14   50 1
  29   14   51 1
  30   15   16 1
  31   15   18 1
  32   15   52 1
  33   16   17 1
  34   16   53 1
  35   16   54 1
  36   17   55 1
  37   17   56 1
  38   18   19 am
  39   18   20 2
  40   19   21 1
  41   19   57 1
  42   21   22 2
  43   21   26 1
  44   22   23 1
  45   23   24 1
  46   23   58 1
  47   23   59 1
  48   24   25 1
  49   24   60 1
  50   24   61 1
  51   25   26 1
  52   25   62 1
  53   25   63 1
  54   26   64 1
  55   27   28 am
  56   27   65 1
  57   28   29 1
  58   28   35 2
  59   29   30 ar
  60   29   34 ar
  61   30   31 ar
  62   30   37 1
  63   31   32 ar
  64   31   66 1
  65   32   33 ar
  66   32   39 1
  67   33   34 ar
  68   33   67 1
  69   34   36 1
  70   36   68 1
  71   36   69 1
  72   36   70 1
  73   37   38 1
  74   37   71 1
  75   37   72 1
  76   38   73 1
  77   38   74 1
  78   38   75 1

#	End of record

