#	Name: ASD01150990
#	Creating user name:	WinNT
#	Creation time:	15. 06. 2019 19:05

#	Modifying user name:	WinNT
#	Modification time:	15. 06. 2019 19:05

#	Program:	/corina/corina34_cracker 3.40 0067  02.08.2006

@<TRIPOS>MOLECULE
ASD01150990
  50   51    0    0    0
SMALL
NO_CHARGES


@<TRIPOS>ATOM
   1 C1            -0.0167     1.3802     0.0096 C.2     
   2 C2             0.0021    -0.0041     0.0020 C.2     
   3 N3            -1.2754    -0.4144     0.0120 N.2     
   4 C4            -2.0589     0.6289     0.0251 C.2     
   5 O5            -1.3229     1.7442     0.0300 O.3     
   6 C6            -3.5652     0.5830     0.0384 C.3     
   7 C7            -4.0619     0.5591     1.4853 C.3     
   8 N8             1.1307    -0.8153    -0.0135 N.am    
   9 C9             1.1043     2.2437     0.0036 C.2     
  10 O10            2.2295     1.7800    -0.0097 O.2     
  11 O11            0.9257     3.5816     0.0125 O.3     
  12 C12            2.1019     4.3931     0.0056 C.3     
  13 C13            1.7025     5.8700     0.0173 C.3     
  14 C14            0.9967    -2.1564    -0.0194 C.2     
  15 C15            2.2203    -3.0359    -0.0362 C.3     
  16 O16           -0.1086    -2.6553    -0.0111 O.2     
  17 C17            3.0677    -2.7545     1.2062 C.3     
  18 O18            2.2993    -3.0298     2.3792 O.3     
  19 C19            3.0019    -2.7983     3.6018 C.3     
  20 C20            1.7989    -4.4828    -0.0398 C.ar    
  21 C21            1.0208    -4.9735    -1.0716 C.ar    
  22 C22            0.6342    -6.3007    -1.0748 C.ar    
  23 C23            1.0262    -7.1373    -0.0466 C.ar    
  24 C24            1.8052    -6.6468     0.9847 C.ar    
  25 C25            2.1953    -5.3206     0.9857 C.ar    
  26 C26            3.0430    -2.7411    -1.2921 C.3     
  27 F27            3.4341    -1.3979    -1.2888 F       
  28 F28            4.1789    -3.5576    -1.3077 F       
  29 F29            2.2681    -2.9984    -2.4282 F       
  30 H30           -3.9600     1.4644    -0.4668 H       
  31 H31           -3.9059    -0.3147    -0.4776 H       
  32 H32           -5.1513     0.5259     1.4950 H       
  33 H33           -3.6670    -0.3223     1.9905 H       
  34 H34           -3.7212     1.4568     2.0013 H       
  35 H35            2.0148    -0.4162    -0.0201 H       
  36 H36            2.7012     4.1718     0.8887 H       
  37 H37            2.6842     4.1813    -0.8912 H       
  38 H38            1.1032     6.0914    -0.8658 H       
  39 H39            1.1202     6.0818     0.9141 H       
  40 H40            2.5997     6.4891     0.0121 H       
  41 H41            3.9527    -3.3907     1.1940 H       
  42 H42            3.3725    -1.7080     1.2088 H       
  43 H43            2.3507    -3.0302     4.4446 H       
  44 H44            3.8856    -3.4353     3.6394 H       
  45 H45            3.3053    -1.7527     3.6541 H       
  46 H46            0.7145    -4.3198    -1.8749 H       
  47 H47            0.0256    -6.6839    -1.8806 H       
  48 H48            0.7236    -8.1740    -0.0488 H       
  49 H49            2.1112    -7.3003     1.7882 H       
  50 H50            2.8039    -4.9374     1.7914 H       
@<TRIPOS>BOND
   1    1    2 2
   2    1    9 1
   3    1    5 1
   4    2    3 1
   5    2    8 1
   6    3    4 2
   7    4    5 1
   8    4    6 1
   9    6    7 1
  10    6   30 1
  11    6   31 1
  12    7   32 1
  13    7   33 1
  14    7   34 1
  15    8   14 am
  16    8   35 1
  17    9   10 2
  18    9   11 1
  19   11   12 1
  20   12   13 1
  21   12   36 1
  22   12   37 1
  23   13   38 1
  24   13   39 1
  25   13   40 1
  26   14   15 1
  27   14   16 2
  28   15   17 1
  29   15   20 1
  30   15   26 1
  31   17   18 1
  32   17   41 1
  33   17   42 1
  34   18   19 1
  35   19   43 1
  36   19   44 1
  37   19   45 1
  38   20   21 ar
  39   20   25 ar
  40   21   22 ar
  41   21   46 1
  42   22   23 ar
  43   22   47 1
  44   23   24 ar
  45   23   48 1
  46   24   25 ar
  47   24   49 1
  48   25   50 1
  49   26   27 1
  50   26   28 1
  51   26   29 1

#	End of record

