#	Name: ASD03240194
#	Creating user name:	WinNT
#	Creation time:	15. 06. 2019 20:34

#	Modifying user name:	WinNT
#	Modification time:	15. 06. 2019 20:34

#	Program:	/corina/corina34_cracker 3.40 0067  02.08.2006

@<TRIPOS>MOLECULE
ASD03240194
  52   56    0    0    0
SMALL
NO_CHARGES


@<TRIPOS>ATOM
   1 C1            -0.0167     1.3786     0.0096 C.ar    
   2 C2             0.0021    -0.0041     0.0020 C.ar    
   3 C3            -1.1837    -0.7123     0.0095 C.ar    
   4 C4            -2.3954    -0.0344     0.0247 C.ar    
   5 C5            -2.4109     1.3541     0.0324 C.ar    
   6 C6            -1.2218     2.0565     0.0305 C.ar    
   7 N7            -3.5998    -0.7498     0.0319 N.pl3   
   8 C8            -3.9123    -1.7661    -0.8313 C.2     
   9 C9            -5.1515    -2.2387    -0.5488 C.2     
  10 C10           -5.6517    -1.4505     0.5852 C.ar    
  11 C11           -4.6330    -0.5372     0.9080 C.ar    
  12 C12           -6.8330    -1.4361     1.3382 C.ar    
  13 N13           -6.9414    -0.5520     2.3264 N.ar    
  14 C14           -5.9619     0.2925     2.5936 C.ar    
  15 N15           -4.8339     0.3093     1.9167 N.ar    
  16 N16           -7.8614    -2.3190     1.0609 N.pl3   
  17 C17           -9.0889    -2.2881     1.8600 C.3     
  18 C18          -10.0420    -3.3418     1.3577 C.ar    
  19 C19          -10.0038    -4.6178     1.8881 C.ar    
  20 C20           -5.8622    -3.3357    -1.2477 C.ar    
  21 C21           -5.9581    -3.3330    -2.6387 C.ar    
  22 C22           -6.4326    -4.3773    -0.5171 C.ar    
  23 C23           -7.0926    -5.3961    -1.1734 C.ar    
  24 C24           -7.1891    -5.3853    -2.5533 C.ar    
  25 C25           -6.6206    -4.3572    -3.2839 C.ar    
  26 C26          -10.8780    -5.5843     1.4273 C.ar    
  27 C27          -11.7908    -5.2748     0.4363 C.ar    
  28 C28          -11.8296    -3.9986    -0.0935 C.ar    
  29 C29          -10.9583    -3.0308     0.3704 C.ar    
  30 C30            1.2790     2.1482     0.0014 C.3     
  31 H31            0.9449    -0.5307    -0.0102 H       
  32 H32           -1.1684    -1.7921     0.0032 H       
  33 H33           -3.3519     1.8841     0.0438 H       
  34 H34           -1.2331     3.1364     0.0364 H       
  35 H35           -3.2700    -2.1347    -1.6174 H       
  36 H36           -6.0899     0.9944     3.4043 H       
  37 H37           -7.7697    -2.9585     0.3373 H       
  38 H38           -8.8474    -2.4848     2.9046 H       
  39 H39           -9.5542    -1.3062     1.7733 H       
  40 H40           -9.2906    -4.8596     2.6623 H       
  41 H41           -5.5149    -2.5308    -3.2100 H       
  42 H42           -6.3576    -4.3869     0.5602 H       
  43 H43           -7.5345    -6.2036    -0.6085 H       
  44 H44           -7.7063    -6.1850    -3.0626 H       
  45 H45           -6.6990    -4.3541    -4.3610 H       
  46 H46          -10.8477    -6.5814     1.8412 H       
  47 H47          -12.4733    -6.0301     0.0758 H       
  48 H48          -12.5425    -3.7569    -0.8679 H       
  49 H49          -10.9886    -2.0338    -0.0435 H       
  50 H50            1.5815     2.3393    -1.0282 H       
  51 H51            1.1418     3.0962     0.5216 H       
  52 H52            2.0507     1.5659     0.5047 H       
@<TRIPOS>BOND
   1    1    2 ar
   2    1   30 1
   3    1    6 ar
   4    2    3 ar
   5    2   31 1
   6    3    4 ar
   7    3   32 1
   8    4    5 ar
   9    4    7 1
  10    5    6 ar
  11    5   33 1
  12    6   34 1
  13    7    8 1
  14    7   11 1
  15    8    9 2
  16    8   35 1
  17    9   10 1
  18    9   20 1
  19   10   11 ar
  20   10   12 ar
  21   11   15 ar
  22   12   13 ar
  23   12   16 1
  24   13   14 ar
  25   14   15 ar
  26   14   36 1
  27   16   17 1
  28   16   37 1
  29   17   18 1
  30   17   38 1
  31   17   39 1
  32   18   19 ar
  33   18   29 ar
  34   19   26 ar
  35   19   40 1
  36   20   21 ar
  37   20   22 ar
  38   21   25 ar
  39   21   41 1
  40   22   23 ar
  41   22   42 1
  42   23   24 ar
  43   23   43 1
  44   24   25 ar
  45   24   44 1
  46   25   45 1
  47   26   27 ar
  48   26   46 1
  49   27   28 ar
  50   27   47 1
  51   28   29 ar
  52   28   48 1
  53   29   49 1
  54   30   50 1
  55   30   51 1
  56   30   52 1

#	End of record

