#	Name: ASD04910312
#	Creating user name:	WinNT
#	Creation time:	15. 06. 2019 20:55

#	Modifying user name:	WinNT
#	Modification time:	15. 06. 2019 20:55

#	Program:	/corina/corina34_cracker 3.40 0067  02.08.2006

@<TRIPOS>MOLECULE
ASD04910312
  67   69    0    0    0
SMALL
NO_CHARGES


@<TRIPOS>ATOM
   1 C1            -0.6648     1.3558     0.2470 C.2     
   2 C2            -0.5210    -0.1442     0.2315 C.3     
   3 C3             0.9486    -0.5135     0.0199 C.3     
   4 O4             0.3083     2.0575     0.1036 O.2     
   5 O5            -1.8748     1.9123     0.4146 O.3     
   6 C6             2.3025    -2.5306    -0.1690 C.2     
   7 C7             2.4436    -4.0022    -0.1843 C.ar    
   8 C8             3.6994    -4.5841    -0.3641 C.ar    
   9 C9             3.8243    -5.9579    -0.3768 C.ar    
  10 C10            2.7079    -6.7586    -0.2123 C.ar    
  11 C11            1.4601    -6.1882    -0.0336 C.ar    
  12 C12            1.3223    -4.8156    -0.0131 C.ar    
  13 O13            3.2814    -1.8246    -0.3133 O.2     
  14 N14            1.0884    -1.9718     0.0048 N.am    
  15 C15            2.8517    -8.2587    -0.2283 C.3     
  16 C16            2.8575    -8.7858     1.2080 C.3     
  17 C17            3.1280   -10.2917     1.1975 C.3     
  18 C18            3.1338   -10.8188     2.6338 C.3     
  19 O19            1.7562    -8.8346    -0.9427 O.3     
  20 C20            2.0059    -9.9730    -1.6425 C.ar    
  21 C21            3.2938   -10.4861    -1.6954 C.ar    
  22 C22            3.5478   -11.6423    -2.4062 C.ar    
  23 C23            2.5144   -12.2913    -3.0678 C.ar    
  24 C24            1.2260   -11.7775    -3.0146 C.ar    
  25 C25            0.9717   -10.6244    -2.2990 C.ar    
  26 C26            3.3451   -14.6002    -3.3107 C.2     
  27 N27            3.4175   -15.4719    -4.2796 N.2     
  28 C28            2.9026   -14.9379    -5.3969 C.2     
  29 C29            2.4936   -13.6862    -5.1148 C.2     
  30 N30            2.7724   -13.4664    -3.7908 N.pl3   
  31 C31            1.8533   -12.7135    -6.0712 C.3     
  32 C32            2.9424   -11.9549    -6.8324 C.3     
  33 C33            2.7999   -15.6203    -6.7366 C.3     
  34 C34            1.4626   -16.3575    -6.8323 C.3     
  35 H35           -0.8650    -0.5521     1.1820 H       
  36 H36           -1.1201    -0.5583    -0.5796 H       
  37 H37            1.2925    -0.1057    -0.9306 H       
  38 H38            1.5476    -0.0995     0.8310 H       
  39 H39           -1.9170     2.8784     0.4176 H       
  40 H40            4.5715    -3.9602    -0.4933 H       
  41 H41            4.7954    -6.4095    -0.5159 H       
  42 H42            0.5927    -6.8187     0.0942 H       
  43 H43            0.3484    -4.3716     0.1309 H       
  44 H44            0.3072    -2.5351     0.1200 H       
  45 H45            3.7871    -8.5288    -0.7183 H       
  46 H46            3.6376    -8.2805     1.7773 H       
  47 H47            1.8888    -8.5939     1.6694 H       
  48 H48            2.3478   -10.7970     0.6282 H       
  49 H49            4.0967   -10.4836     0.7361 H       
  50 H50            3.9140   -10.3135     3.2031 H       
  51 H51            2.1651   -10.6269     3.0952 H       
  52 H52            3.3265   -11.8916     2.6263 H       
  53 H53            4.0978    -9.9809    -1.1809 H       
  54 H54            4.5505   -12.0415    -2.4476 H       
  55 H55            0.4217   -12.2822    -3.5293 H       
  56 H56           -0.0315   -10.2270    -2.2539 H       
  57 H57            3.6804   -14.7562    -2.2960 H       
  58 H58            1.2277   -13.2579    -6.7786 H       
  59 H59            1.2399   -12.0059    -5.5135 H       
  60 H60            3.6203   -11.4823    -6.1217 H       
  61 H61            3.5001   -12.6512    -7.4587 H       
  62 H62            2.4825   -11.1907    -7.4591 H       
  63 H63            2.8615   -14.8751    -7.5297 H       
  64 H64            3.6167   -16.3340    -6.8444 H       
  65 H65            1.4009   -17.1027    -6.0392 H       
  66 H66            0.6458   -15.6438    -6.7245 H       
  67 H67            1.3883   -16.8511    -7.8013 H       
@<TRIPOS>BOND
   1    1    2 1
   2    1    4 2
   3    1    5 1
   4    2    3 1
   5    2   35 1
   6    2   36 1
   7    3   14 1
   8    3   37 1
   9    3   38 1
  10    5   39 1
  11    6    7 1
  12    6   13 2
  13    6   14 am
  14    7    8 ar
  15    7   12 ar
  16    8    9 ar
  17    8   40 1
  18    9   10 ar
  19    9   41 1
  20   10   11 ar
  21   10   15 1
  22   11   12 ar
  23   11   42 1
  24   12   43 1
  25   14   44 1
  26   15   16 1
  27   15   19 1
  28   15   45 1
  29   16   17 1
  30   16   46 1
  31   16   47 1
  32   17   18 1
  33   17   48 1
  34   17   49 1
  35   18   50 1
  36   18   51 1
  37   18   52 1
  38   19   20 1
  39   20   21 ar
  40   20   25 ar
  41   21   22 ar
  42   21   53 1
  43   22   23 ar
  44   22   54 1
  45   23   24 ar
  46   23   30 1
  47   24   25 ar
  48   24   55 1
  49   25   56 1
  50   26   27 2
  51   26   30 1
  52   26   57 1
  53   27   28 1
  54   28   29 2
  55   28   33 1
  56   29   30 1
  57   29   31 1
  58   31   32 1
  59   31   58 1
  60   31   59 1
  61   32   60 1
  62   32   61 1
  63   32   62 1
  64   33   34 1
  65   33   63 1
  66   33   64 1
  67   34   65 1
  68   34   66 1
  69   34   67 1

#	End of record

