#	Name: ASD00731058
#	Creating user name:	WinNT
#	Creation time:	15. 06. 2019 18:37

#	Modifying user name:	WinNT
#	Modification time:	15. 06. 2019 18:37

#	Program:	/corina/corina34_cracker 3.40 0067  02.08.2006

@<TRIPOS>MOLECULE
ASD00731058
 215  214    0    0    0
SMALL
NO_CHARGES


@<TRIPOS>ATOM
   1 C1            -1.4764    -2.1518     9.5826 C.2     
   2 O2            -1.6217    -3.3546     9.5271 O.2     
   3 N3             0.4032    -2.5771    11.0629 N.3     
   4 C4            -0.2303    -1.5711    10.2000 C.3     
   5 C5             0.7440    -1.1618     9.0936 C.3     
   6 C6             1.9537    -0.4595     9.7134 C.3     
   7 C7             2.9280    -0.0502     8.6070 C.3     
   8 N8             4.0863     0.6224     9.2005 N.pl3   
   9 C9             5.1008     1.0824     8.3954 C.2     
  10 N10            5.0945     0.8124     7.1219 N.2     
  11 N11            6.1274     1.8313     8.9377 N.am    
  12 C12           -4.2129    -0.9130     7.4994 C.2     
  13 O13           -3.6685     0.1564     7.3228 O.2     
  14 N14           -2.4267    -1.3347     9.0872 N.am    
  15 C15           -3.6353    -1.8993     8.4816 C.3     
  16 C16           -4.6645    -2.1924     9.5750 C.3     
  17 C17           -5.0180    -0.8944    10.3039 C.3     
  18 C18           -6.1368    -1.1640    11.3121 C.3     
  19 C19           -4.0782    -3.1938    10.5722 C.3     
  20 C20           -7.3284    -0.4616     5.6603 C.2     
  21 O21           -7.8685    -1.4764     6.0468 O.2     
  22 N22           -5.3343    -1.2191     6.8174 N.am    
  23 C23           -5.8341    -0.3096     5.7835 C.3     
  24 C24           -5.1750    -0.6477     4.4447 C.3     
  25 C25           -5.5854     0.3898     3.3978 C.3     
  26 C26           -5.0141     1.7561     3.7825 C.3     
  27 C27           -5.0406    -0.0237     2.0292 C.3     
  28 C28          -10.0733     1.2693     3.9774 C.2     
  29 O29           -9.3169     1.8873     3.2585 O.2     
  30 N30           -8.0644     0.5301     5.1207 N.am    
  31 C31           -9.5261     0.4319     5.1045 C.3     
  32 C32          -10.0860     0.9389     6.4350 C.3     
  33 C33           -9.6307     0.0139     7.5655 C.3     
  34 S34          -10.2947     0.6150     9.1430 S.3     
  35 C35           -9.6574    -0.5902    10.3397 C.3     
  36 C36          -13.3509     2.5528     2.9910 C.2     
  37 O37          -13.8648     2.1980     4.0307 O.2     
  38 N38          -11.4033     1.3315     3.7683 N.am    
  39 C39          -11.9353     2.1456     2.6727 C.3     
  40 C40          -11.9179     1.3315     1.3774 C.3     
  41 C41          -10.5016     0.8128     1.1201 C.3     
  42 O42          -12.8155     0.2261     1.4974 O.3     
  43 C43          -16.1656     3.9827     1.1482 C.2     
  44 O44          -15.6017     3.8603     0.0815 O.2     
  45 N45          -14.0458     3.3114     2.1203 N.am    
  46 C46          -15.4220     3.7073     2.4297 C.3     
  47 C47          -15.4074     4.9707     3.2925 C.3     
  48 C48          -14.7626     4.6577     4.6443 C.3     
  49 C49          -14.7481     5.9211     5.5071 C.3     
  50 C50          -14.1033     5.6082     6.8588 C.3     
  51 N51          -14.0893     6.8212     7.6873 N.3     
  52 C52          -19.2320     5.7385     0.2638 C.2     
  53 O53          -19.6159     5.8797     1.4055 O.2     
  54 N54          -17.4574     4.3650     1.1876 N.am    
  55 C55          -18.1488     4.7386    -0.0488 C.3     
  56 C56          -18.7720     3.4925    -0.6811 C.3     
  57 C57          -19.4228     3.8680    -2.0139 C.3     
  58 C58          -18.3400     4.2905    -3.0090 C.3     
  59 C59          -20.1823     2.6612    -2.5686 C.3     
  60 C60          -22.1172     6.9362    -0.2923 C.2     
  61 O61          -22.2791     5.7459    -0.4592 O.2     
  62 N62          -19.7742     6.4760    -0.7255 N.am    
  63 C63          -20.7380     7.5325    -0.4076 C.3     
  64 C64          -20.7281     8.5834    -1.5196 C.3     
  65 C65          -19.3645     9.2765    -1.5541 C.3     
  66 C66          -19.3546    10.3273    -2.6661 C.3     
  67 N67          -18.0489    10.9910    -2.6991 N.pl3   
  68 C68          -17.8032    11.9791    -3.6230 C.2     
  69 N69          -18.7319    12.3254    -4.4694 N.2     
  70 N70          -16.5779    12.6018    -3.6540 N.pl3   
  71 C71          -25.5430     8.2067    -0.1777 C.2     
  72 O72          -25.1939     9.3316    -0.4476 O.2     
  73 N73          -23.1708     7.7257    -0.0037 N.am    
  74 C74          -24.5115     7.1460     0.1084 C.3     
  75 C75          -24.7162     6.6044     1.5246 C.3     
  76 O76          -26.8494     7.9020    -0.1328 O.3     
  77 C77            6.0665     2.2259    10.2250 C.2     
  78 O78            5.1558     1.8500    10.9318 O.2     
  79 C79           12.5671    11.6419    25.0664 C.3     
  80 C80           11.4872    10.7196    24.4971 C.3     
  81 C81           11.7903    10.4265    23.0263 C.3     
  82 C82           10.7105     9.5043    22.4570 C.3     
  83 C83           11.0136     9.2112    20.9862 C.3     
  84 C84            9.9338     8.2889    20.4169 C.3     
  85 C85           10.2369     7.9958    18.9461 C.3     
  86 C86            9.1571     7.0735    18.3768 C.3     
  87 C87            9.4602     6.7804    16.9060 C.3     
  88 C88            8.3803     5.8581    16.3367 C.3     
  89 C89            8.6835     5.5650    14.8659 C.3     
  90 C90            7.6036     4.6428    14.2966 C.3     
  91 C91            7.9068     4.3497    12.8259 C.3     
  92 C92            6.8269     3.4274    12.2565 C.3     
  93 C93            7.1301     3.1343    10.7858 C.3     
  94 H94            0.6565    -3.3987    10.5347 H       
  95 H95            1.2051    -2.1918    11.5390 H       
  96 H96           -0.4932    -0.6962    10.7946 H       
  97 H97            1.0758    -2.0495     8.5550 H       
  98 H98            0.2444    -0.4830     8.4024 H       
  99 H99            1.6219     0.4282    10.2520 H       
 100 H100           2.4532    -1.1383    10.4046 H       
 101 H101           3.2598    -0.9378     8.0684 H       
 102 H102           2.4284     0.6286     7.9158 H       
 103 H103           4.1372     0.7430    10.1616 H       
 104 H104           5.7697     1.1969     6.5412 H       
 105 H105           6.8920     2.0730     8.3920 H       
 106 H106          -2.3105    -0.3727     9.1316 H       
 107 H107          -3.3835    -2.8240     7.9623 H       
 108 H108          -5.5637    -2.6125     9.1244 H       
 109 H109          -4.1384    -0.5211    10.8284 H       
 110 H110          -5.3523    -0.1509     9.5803 H       
 111 H111          -6.3886    -0.2393    11.8313 H       
 112 H112          -7.0163    -1.5373    10.7876 H       
 113 H113          -5.8024    -1.9075    12.0356 H       
 114 H114          -4.8114    -3.4026    11.3512 H       
 115 H115          -3.8264    -4.1185    10.0529 H       
 116 H116          -3.1790    -2.7737    11.0228 H       
 117 H117          -5.8104    -2.0417     7.0111 H       
 118 H118          -5.5948     0.7181     6.0570 H       
 119 H119          -4.0912    -0.6379     4.5606 H       
 120 H120          -5.4969    -1.6375     4.1210 H       
 121 H121          -6.6728     0.4502     3.3529 H       
 122 H122          -3.9361     1.6734     3.9204 H       
 123 H123          -5.2251     2.4742     2.9902 H       
 124 H124          -5.4744     2.0939     4.7110 H       
 125 H125          -5.4475    -0.9970     1.7551 H       
 126 H126          -5.3329     0.7155     1.2833 H       
 127 H127          -3.9532    -0.0841     2.0741 H       
 128 H128          -7.6264     1.3088     4.7430 H       
 129 H129          -9.8188    -0.6081     4.9597 H       
 130 H130          -9.7203     1.9485     6.6220 H       
 131 H131         -11.1751     0.9493     6.3904 H       
 132 H132          -9.9965    -0.9957     7.3785 H       
 133 H133          -8.5417     0.0034     7.6100 H       
 134 H134         -10.0225    -1.5847    10.0832 H       
 135 H135          -8.5677    -0.5856    10.3148 H       
 136 H136          -9.9992    -0.3245    11.3400 H       
 137 H137         -12.0083     0.8372     4.3433 H       
 138 H138         -11.3197     3.0367     2.5501 H       
 139 H139         -12.2297     1.9641     0.5464 H       
 140 H140         -10.1898     0.1801     1.9511 H       
 141 H141         -10.4892     0.2328     0.1973 H       
 142 H142          -9.8170     1.6559     1.0285 H       
 143 H143         -12.5983    -0.3804     2.2186 H       
 144 H144         -13.6348     3.5952     1.2887 H       
 145 H145         -15.9183     2.9026     2.9721 H       
 146 H146         -14.8343     5.7486     2.7880 H       
 147 H147         -16.4295     5.3158     3.4487 H       
 148 H148         -15.3357     3.8798     5.1487 H       
 149 H149         -13.7406     4.3126     4.4881 H       
 150 H150         -14.1750     6.6991     5.0026 H       
 151 H151         -15.7701     6.2663     5.6633 H       
 152 H152         -14.6763     4.8302     7.3633 H       
 153 H153         -13.0812     5.2630     6.7027 H       
 154 H154         -15.0195     7.1975     7.7931 H       
 155 H155         -13.6680     6.6404     8.5861 H       
 156 H156         -17.9294     4.3929     2.0345 H       
 157 H157         -17.4357     5.1810    -0.7444 H       
 158 H158         -17.9968     2.7458    -0.8529 H       
 159 H159         -19.5277     3.0839    -0.0102 H       
 160 H160         -20.1166     4.6944    -1.8594 H       
 161 H161         -18.7906     4.4562    -3.9876 H       
 162 H162         -17.8698     5.2117    -2.6649 H       
 163 H163         -17.5884     3.5047    -3.0834 H       
 164 H164         -20.9537     2.3603    -1.8597 H       
 165 H165         -20.6459     2.9288    -3.5181 H       
 166 H166         -19.4885     1.8349    -2.7231 H       
 167 H167         -19.5263     6.3073    -1.6480 H       
 168 H168         -20.4647     8.0013     0.5378 H       
 169 H169         -20.9141     8.0996    -2.4784 H       
 170 H170         -21.5064     9.3221    -1.3283 H       
 171 H171         -19.1785     9.7603    -0.5952 H       
 172 H172         -18.5862     8.5377    -1.7453 H       
 173 H173         -19.5406     9.8435    -3.6249 H       
 174 H174         -20.1329    11.0661    -2.4748 H       
 175 H175         -17.3578    10.7332    -2.0692 H       
 176 H176         -18.5586    13.0225    -5.1212 H       
 177 H177         -15.8868    12.3441    -3.0241 H       
 178 H178         -16.4046    13.2990    -4.3058 H       
 179 H179         -23.0413     8.6777     0.1299 H       
 180 H180         -24.6172     6.3332    -0.6102 H       
 181 H181         -24.6106     7.4172     2.2432 H       
 182 H182         -25.7138     6.1731     1.6080 H       
 183 H183         -23.9702     5.8371     1.7316 H       
 184 H184         -27.4735     8.6156    -0.3237 H       
 185 H185          12.3511    11.8507    26.1142 H       
 186 H186          13.5394    11.1560    24.9857 H       
 187 H187          12.5800    12.5761    24.5050 H       
 188 H188          11.4742     9.7855    25.0585 H       
 189 H189          10.5148    11.2056    24.5778 H       
 190 H190          11.8033    11.3607    22.4649 H       
 191 H191          12.7627     9.9406    22.9456 H       
 192 H192          10.6975     8.5701    23.0184 H       
 193 H193           9.7381     9.9902    22.5377 H       
 194 H194          11.0266    10.1453    20.4248 H       
 195 H195          11.9860     8.7252    20.9055 H       
 196 H196           9.9208     7.3547    20.9783 H       
 197 H197           8.9614     8.7748    20.4976 H       
 198 H198          10.2499     8.9300    18.3847 H       
 199 H199          11.2093     7.5099    18.8654 H       
 200 H200           9.1441     6.1393    18.9382 H       
 201 H201           8.1847     7.5595    18.4575 H       
 202 H202           9.4732     7.7146    16.3446 H       
 203 H203          10.4326     6.2945    16.8253 H       
 204 H204           8.3674     4.9240    16.8982 H       
 205 H205           7.4080     6.3441    16.4174 H       
 206 H206           8.6965     6.4992    14.3045 H       
 207 H207           9.6559     5.0791    14.7852 H       
 208 H208           7.5907     3.7086    14.8581 H       
 209 H209           6.6313     5.1287    14.3773 H       
 210 H210           7.9198     5.2838    12.2644 H       
 211 H211           8.8792     3.8637    12.7452 H       
 212 H212           6.8140     2.4932    12.8180 H       
 213 H213           5.8546     3.9133    12.3372 H       
 214 H214           8.1024     2.6484    10.7051 H       
 215 H215           7.1431     4.0685    10.2243 H       
@<TRIPOS>BOND
   1    1    2 2
   2    1    4 1
   3    1   14 am
   4    3    4 1
   5    3   94 1
   6    3   95 1
   7    4    5 1
   8    4   96 1
   9    5    6 1
  10    5   97 1
  11    5   98 1
  12    6    7 1
  13    6   99 1
  14    6  100 1
  15    7    8 1
  16    7  101 1
  17    7  102 1
  18    8    9 1
  19    8  103 1
  20    9   10 2
  21    9   11 1
  22   10  104 1
  23   11   77 am
  24   11  105 1
  25   12   13 2
  26   12   15 1
  27   12   22 am
  28   14   15 1
  29   14  106 1
  30   15   16 1
  31   15  107 1
  32   16   17 1
  33   16   19 1
  34   16  108 1
  35   17   18 1
  36   17  109 1
  37   17  110 1
  38   18  111 1
  39   18  112 1
  40   18  113 1
  41   19  114 1
  42   19  115 1
  43   19  116 1
  44   20   21 2
  45   20   23 1
  46   20   30 am
  47   22   23 1
  48   22  117 1
  49   23   24 1
  50   23  118 1
  51   24   25 1
  52   24  119 1
  53   24  120 1
  54   25   26 1
  55   25   27 1
  56   25  121 1
  57   26  122 1
  58   26  123 1
  59   26  124 1
  60   27  125 1
  61   27  126 1
  62   27  127 1
  63   28   29 2
  64   28   31 1
  65   28   38 am
  66   30   31 1
  67   30  128 1
  68   31   32 1
  69   31  129 1
  70   32   33 1
  71   32  130 1
  72   32  131 1
  73   33   34 1
  74   33  132 1
  75   33  133 1
  76   34   35 1
  77   35  134 1
  78   35  135 1
  79   35  136 1
  80   36   37 2
  81   36   39 1
  82   36   45 am
  83   38   39 1
  84   38  137 1
  85   39   40 1
  86   39  138 1
  87   40   41 1
  88   40   42 1
  89   40  139 1
  90   41  140 1
  91   41  141 1
  92   41  142 1
  93   42  143 1
  94   43   44 2
  95   43   46 1
  96   43   54 am
  97   45   46 1
  98   45  144 1
  99   46   47 1
 100   46  145 1
 101   47   48 1
 102   47  146 1
 103   47  147 1
 104   48   49 1
 105   48  148 1
 106   48  149 1
 107   49   50 1
 108   49  150 1
 109   49  151 1
 110   50   51 1
 111   50  152 1
 112   50  153 1
 113   51  154 1
 114   51  155 1
 115   52   53 2
 116   52   55 1
 117   52   62 am
 118   54   55 1
 119   54  156 1
 120   55   56 1
 121   55  157 1
 122   56   57 1
 123   56  158 1
 124   56  159 1
 125   57   58 1
 126   57   59 1
 127   57  160 1
 128   58  161 1
 129   58  162 1
 130   58  163 1
 131   59  164 1
 132   59  165 1
 133   59  166 1
 134   60   61 2
 135   60   63 1
 136   60   73 am
 137   62   63 1
 138   62  167 1
 139   63   64 1
 140   63  168 1
 141   64   65 1
 142   64  169 1
 143   64  170 1
 144   65   66 1
 145   65  171 1
 146   65  172 1
 147   66   67 1
 148   66  173 1
 149   66  174 1
 150   67   68 1
 151   67  175 1
 152   68   69 2
 153   68   70 1
 154   69  176 1
 155   70  177 1
 156   70  178 1
 157   71   72 2
 158   71   74 1
 159   71   76 1
 160   73   74 1
 161   73  179 1
 162   74   75 1
 163   74  180 1
 164   75  181 1
 165   75  182 1
 166   75  183 1
 167   76  184 1
 168   77   78 2
 169   77   93 1
 170   79   80 1
 171   79  185 1
 172   79  186 1
 173   79  187 1
 174   80   81 1
 175   80  188 1
 176   80  189 1
 177   81   82 1
 178   81  190 1
 179   81  191 1
 180   82   83 1
 181   82  192 1
 182   82  193 1
 183   83   84 1
 184   83  194 1
 185   83  195 1
 186   84   85 1
 187   84  196 1
 188   84  197 1
 189   85   86 1
 190   85  198 1
 191   85  199 1
 192   86   87 1
 193   86  200 1
 194   86  201 1
 195   87   88 1
 196   87  202 1
 197   87  203 1
 198   88   89 1
 199   88  204 1
 200   88  205 1
 201   89   90 1
 202   89  206 1
 203   89  207 1
 204   90   91 1
 205   90  208 1
 206   90  209 1
 207   91   92 1
 208   91  210 1
 209   91  211 1
 210   92   93 1
 211   92  212 1
 212   92  213 1
 213   93  214 1
 214   93  215 1

#	End of record

