#	Name: ASD04590170
#	Creating user name:	WinNT
#	Creation time:	15. 06. 2019 20:50

#	Modifying user name:	WinNT
#	Modification time:	15. 06. 2019 20:50

#	Program:	/corina/corina34_cracker 3.40 0067  02.08.2006

@<TRIPOS>MOLECULE
ASD04590170
  51   52    0    0    0
SMALL
NO_CHARGES


@<TRIPOS>ATOM
   1 N1            -0.0153     1.2803     0.0091 N.pl3   
   2 N2             0.0021    -0.0041     0.0020 N.2     
   3 C3             1.2457    -0.4438    -0.0122 C.2     
   4 C4             2.0902     0.6962    -0.0142 C.2     
   5 C5             1.2525     1.7666    -0.0004 C.2     
   6 C6             1.6768    -1.8544    -0.0235 C.2     
   7 N7             0.7576    -2.8400    -0.0200 N.am    
   8 O8             2.8615    -2.1280    -0.0359 O.2     
   9 N9             3.4941     0.7147    -0.0266 N.am    
  10 C10            4.1525     1.8907    -0.0267 C.2     
  11 C11            1.1858    -4.2410    -0.0312 C.3     
  12 O12            3.5307     2.9356    -0.0160 O.2     
  13 C13            0.0790    -5.1078    -0.6351 C.3     
  14 C14            0.5262    -6.5709    -0.6468 C.3     
  15 C15            0.8088    -7.0293     0.7853 C.3     
  16 C16            1.9156    -6.1625     1.3892 C.3     
  17 C17            1.4684    -4.6994     1.4009 C.3     
  18 N18            5.5001     1.9086    -0.0386 N.am    
  19 C19            6.2157     3.1869    -0.0387 C.3     
  20 C20            7.7235     2.9272    -0.0534 C.3     
  21 O21            1.2264    -8.3959     0.7744 O.3     
  22 C22            8.0925     2.1360    -1.3099 C.3     
  23 C23            8.4709     4.2623    -0.0536 C.3     
  24 C24            8.1148     2.1238     1.1884 C.3     
  25 H25           -0.8184     1.8243     0.0160 H       
  26 H26            1.5409     2.8074     0.0024 H       
  27 H27           -0.1875    -2.6218    -0.0102 H       
  28 H28            3.9901    -0.1188    -0.0351 H       
  29 H29            2.0915    -4.3394    -0.6296 H       
  30 H30           -0.8267    -5.0094    -0.0367 H       
  31 H31           -0.1223    -4.7812    -1.6554 H       
  32 H32           -0.2623    -7.1884    -1.0770 H       
  33 H33            1.4319    -6.6693    -1.2452 H       
  34 H34           -0.0970    -6.9310     1.3837 H       
  35 H35            2.1169    -6.4891     2.4095 H       
  36 H36            2.8213    -6.2609     0.7908 H       
  37 H37            2.2569    -4.0819     1.8311 H       
  38 H38            0.5626    -4.6011     1.9993 H       
  39 H39            5.9961     1.0750    -0.0471 H       
  40 H40            5.9370     3.7593    -0.9235 H       
  41 H41            5.9528     3.7505     0.8564 H       
  42 H42            1.4232    -8.7540     1.6508 H       
  43 H43            7.8137     2.7084    -2.1946 H       
  44 H44            9.1666     1.9511    -1.3204 H       
  45 H45            7.5600     1.1849    -1.3098 H       
  46 H46            8.2080     4.8259     0.8416 H       
  47 H47            9.5450     4.0773    -0.0640 H       
  48 H48            8.1921     4.8346    -0.9383 H       
  49 H49            7.5823     1.1727     1.1885 H       
  50 H50            9.1889     1.9388     1.1780 H       
  51 H51            7.8519     2.6875     2.0836 H       
@<TRIPOS>BOND
   1    1    2 1
   2    1    5 1
   3    1   25 1
   4    2    3 2
   5    3    4 1
   6    3    6 1
   7    4    5 2
   8    4    9 1
   9    5   26 1
  10    6    7 am
  11    6    8 2
  12    7   11 1
  13    7   27 1
  14    9   10 am
  15    9   28 1
  16   10   12 2
  17   10   18 am
  18   11   13 1
  19   11   17 1
  20   11   29 1
  21   13   14 1
  22   13   30 1
  23   13   31 1
  24   14   15 1
  25   14   32 1
  26   14   33 1
  27   15   16 1
  28   15   21 1
  29   15   34 1
  30   16   17 1
  31   16   35 1
  32   16   36 1
  33   17   37 1
  34   17   38 1
  35   18   19 1
  36   18   39 1
  37   19   20 1
  38   19   40 1
  39   19   41 1
  40   20   22 1
  41   20   23 1
  42   20   24 1
  43   21   42 1
  44   22   43 1
  45   22   44 1
  46   22   45 1
  47   23   46 1
  48   23   47 1
  49   23   48 1
  50   24   49 1
  51   24   50 1
  52   24   51 1

#	End of record

