#	Name: ASD02580008
#	Creating user name:	WinNT
#	Creation time:	15. 06. 2019 20:25

#	Modifying user name:	WinNT
#	Modification time:	15. 06. 2019 20:25

#	Program:	/corina/corina34_cracker 3.40 0067  02.08.2006

@<TRIPOS>MOLECULE
ASD02580008
  43   45    0    0    0
SMALL
NO_CHARGES


@<TRIPOS>ATOM
   1 O1            -0.0175     1.4400     0.0100 O.3     
   2 C2             0.0021    -0.0041     0.0020 C.3     
   3 C3             1.3704     1.8394    -0.0011 C.3     
   4 C4             1.1520    -0.3885     0.9592 C.3     
   5 C5             2.0729     0.8522     0.9571 C.3     
   6 O6             0.6481    -0.6358     2.2734 O.3     
   7 C7            -1.3278    -0.5576     0.5178 C.3     
   8 O8            -2.3700    -0.2279    -0.4027 O.3     
   9 P9            -3.9061    -0.6539    -0.1772 P.3     
  10 O10           -4.3852    -0.1439     1.2003 O.co2   
  11 O11           -4.8180    -0.0070    -1.3357 O.3     
  12 O12           -4.0262    -2.1934    -0.2266 O.co2   
  13 P13           -6.3913     0.3041    -1.4779 P.3     
  14 O14           -6.7675     0.4670    -3.0349 O.3     
  15 P15           -8.1524     0.4755    -3.8558 P.3     
  16 O16           -7.8591     0.1573    -5.4065 O.3     
  17 O17           -7.2037    -0.8615    -0.8710 O.co2   
  18 O18           -6.7275     1.6120    -0.7273 O.co2   
  19 O19           -9.0994    -0.6006    -3.2795 O.2     
  20 O20           -8.8160     1.8652    -3.7319 O.3     
  21 C21            1.5138     3.2522     0.5035 C.2     
  22 N22            0.9041     3.7537     1.5407 N.2     
  23 N23            1.2809     5.0931     1.7062 N.pl3   
  24 C24            2.1658     5.4091     0.7112 C.ar    
  25 C25            2.3350     4.2491    -0.0653 C.ar    
  26 C26            2.8773     6.5623     0.3502 C.ar    
  27 N27            3.6740     6.5096    -0.7111 N.ar    
  28 C28            3.8010     5.3998    -1.4188 C.ar    
  29 N29            3.1630     4.2928    -1.1173 N.ar    
  30 N30            2.7518     7.7295     1.0833 N.pl3   
  31 H31            0.2045    -0.3753    -1.0026 H       
  32 H32            1.7827     1.7510    -1.0063 H       
  33 H33            1.6861    -1.2612     0.5835 H       
  34 H34            3.0622     0.5929     0.5803 H       
  35 H35            2.1438     1.2770     1.9584 H       
  36 H36            1.3281    -0.8813     2.9156 H       
  37 H37           -1.2574    -1.6411     0.6141 H       
  38 H38           -1.5506    -0.1200     1.4909 H       
  39 H39           -8.6503     0.1463    -5.9623 H       
  40 H40            0.9691     5.6913     2.4033 H       
  41 H41            4.4598     5.4025    -2.2745 H       
  42 H42            2.1666     7.7561     1.8564 H       
  43 H43            3.2491     8.5209     0.8239 H       
@<TRIPOS>BOND
   1    1    2 1
   2    1    3 1
   3    2    4 1
   4    2    7 1
   5    2   31 1
   6    3    5 1
   7    3   21 1
   8    3   32 1
   9    4    5 1
  10    4    6 1
  11    4   33 1
  12    5   34 1
  13    5   35 1
  14    6   36 1
  15    7    8 1
  16    7   37 1
  17    7   38 1
  18    8    9 1
  19    9   10 ar
  20    9   11 1
  21    9   12 ar
  22   11   13 1
  23   13   14 1
  24   13   17 ar
  25   13   18 ar
  26   14   15 1
  27   15   16 1
  28   15   19 2
  29   15   20 1
  30   16   39 1
  31   21   22 2
  32   21   25 1
  33   22   23 1
  34   23   24 1
  35   23   40 1
  36   24   25 ar
  37   24   26 ar
  38   25   29 ar
  39   26   27 ar
  40   26   30 1
  41   27   28 ar
  42   28   29 ar
  43   28   41 1
  44   30   42 1
  45   30   43 1

#	End of record

