#	Name: ASD01230301
#	Creating user name:	WinNT
#	Creation time:	15. 06. 2019 19:14

#	Modifying user name:	WinNT
#	Modification time:	15. 06. 2019 19:14

#	Program:	/corina/corina34_cracker 3.40 0067  02.08.2006

@<TRIPOS>MOLECULE
ASD01230301
  36   38    0    0    0
SMALL
NO_CHARGES


@<TRIPOS>ATOM
   1 C1             1.0187    -0.5003     0.9178 C.ar    
   2 N2             3.5390     2.0887     0.3668 N.ar    
   3 O3            -2.3277    -0.1538     0.0245 O.2     
   4 C4             0.0033    -0.0131     0.1134 C.ar    
   5 N5             3.2281    -0.2355     1.7802 N.ar    
   6 C6             0.1749     1.1822    -0.6073 C.ar    
   7 N7            -1.2623    -2.0985    -0.0984 N.am    
   8 C8             1.3361     1.8806    -0.5300 C.ar    
   9 C9             2.2276     0.2087     1.0110 C.ar    
  10 C10            2.3882     1.4125     0.2788 C.ar    
  11 C11            4.5068     1.6322     1.1287 C.ar    
  12 C12            4.3479     0.4465     1.8503 C.ar    
  13 C13           -1.2715    -0.7552     0.0106 C.2     
  14 C14           -0.0845    -3.7243    -1.4854 C.3     
  15 C15            0.0039    -2.8290    -0.2455 C.3     
  16 C16           -2.5180    -2.8608    -0.0663 C.3     
  17 C17           -2.5834    -3.7558    -1.3078 C.3     
  18 C18           -1.3236    -4.6223    -1.3740 C.3     
  19 C19           -3.8181    -4.6554    -1.2244 C.3     
  20 H20            0.8810    -1.4163     1.4730 H       
  21 H21           -0.6273     1.5488    -1.2306 H       
  22 H22            1.4529     2.7965    -1.0902 H       
  23 H23            5.4353     2.1795     1.1981 H       
  24 H24            5.1548     0.0867     2.4715 H       
  25 H25           -0.1654    -3.1033    -2.3775 H       
  26 H26            0.8105    -4.3429    -1.5521 H       
  27 H27            0.8232    -2.1199    -0.3645 H       
  28 H28            0.1757    -3.4441     0.6378 H       
  29 H29           -2.5477    -3.4784     0.8314 H       
  30 H30           -3.3633    -2.1726    -0.0670 H       
  31 H31           -2.6450    -3.1346    -2.2013 H       
  32 H32           -1.3762    -5.2781    -2.2431 H       
  33 H33           -1.2552    -5.2248    -0.4683 H       
  34 H34           -4.7149    -4.0379    -1.1743 H       
  35 H35           -3.8642    -5.2921    -2.1079 H       
  36 H36           -3.7549    -5.2773    -0.3314 H       
@<TRIPOS>BOND
   1    1    4 ar
   2    1    9 ar
   3    1   20 1
   4    2   10 ar
   5    2   11 ar
   6    3   13 2
   7    4    6 ar
   8    4   13 1
   9    5    9 ar
  10    5   12 ar
  11    6    8 ar
  12    6   21 1
  13    7   13 am
  14    7   15 1
  15    7   16 1
  16    8   10 ar
  17    8   22 1
  18    9   10 ar
  19   11   12 ar
  20   11   23 1
  21   12   24 1
  22   14   15 1
  23   14   18 1
  24   14   25 1
  25   14   26 1
  26   15   27 1
  27   15   28 1
  28   16   17 1
  29   16   29 1
  30   16   30 1
  31   17   18 1
  32   17   19 1
  33   17   31 1
  34   18   32 1
  35   18   33 1
  36   19   34 1
  37   19   35 1
  38   19   36 1

#	End of record

