#	Name: ASD01915413
#	Creating user name:	WinNT
#	Creation time:	15. 06. 2019 20:05

#	Modifying user name:	WinNT
#	Modification time:	15. 06. 2019 20:05

#	Program:	/corina/corina34_cracker 3.40 0067  02.08.2006

@<TRIPOS>MOLECULE
ASD01915413
  54   58    0    0    0
SMALL
NO_CHARGES


@<TRIPOS>ATOM
   1 C1             0.0429     1.2716    -0.5723 C.ar    
   2 C2             0.1068    -0.1231    -0.6539 C.ar    
   3 C3            -1.0438    -0.8633    -0.8114 C.ar    
   4 C4            -2.2806    -0.2270    -0.8906 C.ar    
   5 C5            -2.3541     1.1772    -0.8089 C.ar    
   6 C6            -1.1887     1.9205    -0.6443 C.ar    
   7 C7             1.2818     2.0578    -0.4034 C.2     
   8 N8             2.4593     1.4287    -0.2186 N.am    
   9 O9             1.2393     3.2726    -0.4310 O.2     
  10 C10            3.6413     2.1647    -0.1630 C.2     
  11 C11            3.7685     3.4970    -0.4000 C.2     
  12 C12            5.1251     3.8355    -0.2376 C.2     
  13 N13            5.7858     2.7433     0.0854 N.2     
  14 N14            4.8764     1.6797     0.1444 N.pl3   
  15 C15            5.1845     0.3489     0.4561 C.ar    
  16 C16            4.4146    -0.3455     1.3792 C.ar    
  17 C17            4.7209    -1.6576     1.6845 C.ar    
  18 C18            5.7929    -2.2798     1.0721 C.ar    
  19 C19            6.5628    -1.5915     0.1522 C.ar    
  20 C20            6.2582    -0.2807    -0.1624 C.ar    
  21 Cl21           7.2247     0.5831    -1.3171 Cl      
  22 C22            5.7096     5.1895    -0.4019 C.ar    
  23 C23            7.0754     5.3894    -0.2110 C.ar    
  24 C24            7.6137     6.6508    -0.3651 C.ar    
  25 C25            6.8001     7.7157    -0.7079 C.ar    
  26 C26            5.4437     7.5230    -0.8982 C.ar    
  27 C27            4.8958     6.2646    -0.7532 C.ar    
  28 C28           -3.5159    -1.0256    -1.0610 C.ar    
  29 C29           -3.5903    -1.9961    -2.0603 C.ar    
  30 C30           -4.7441    -2.7369    -2.2140 C.ar    
  31 C31           -5.8259    -2.5188    -1.3796 C.ar    
  32 C32           -5.7583    -1.5578    -0.3866 C.ar    
  33 C33           -4.6080    -0.8144    -0.2191 C.ar    
  34 C34           -3.6224     1.8369    -0.8900 C.1     
  35 N35           -4.6286     2.3603    -0.9544 N.1     
  36 H36            1.0629    -0.6219    -0.5935 H       
  37 H37           -0.9871    -1.9400    -0.8741 H       
  38 H38           -1.2379     2.9975    -0.5806 H       
  39 H39            2.4840     0.4636    -0.1243 H       
  40 H40            2.9709     4.1750    -0.6657 H       
  41 H41            3.5772     0.1397     1.8584 H       
  42 H42            4.1222    -2.1979     2.4029 H       
  43 H43            6.0299    -3.3056     1.3128 H       
  44 H44            7.3998    -2.0802    -0.3242 H       
  45 H45            7.7114     4.5588     0.0574 H       
  46 H46            8.6721     6.8069    -0.2174 H       
  47 H47            7.2255     8.7012    -0.8272 H       
  48 H48            4.8130     8.3580    -1.1655 H       
  49 H49            3.8366     6.1152    -0.9024 H       
  50 H50           -2.7466    -2.1670    -2.7125 H       
  51 H51           -4.8030    -3.4883    -2.9875 H       
  52 H52           -6.7270    -3.1010    -1.5040 H       
  53 H53           -6.6061    -1.3922     0.2616 H       
  54 H54           -4.5565    -0.0645     0.5564 H       
@<TRIPOS>BOND
   1    1    2 ar
   2    1    7 1
   3    1    6 ar
   4    2    3 ar
   5    2   36 1
   6    3    4 ar
   7    3   37 1
   8    4    5 ar
   9    4   28 1
  10    5    6 ar
  11    5   34 1
  12    6   38 1
  13    7    8 am
  14    7    9 2
  15    8   10 1
  16    8   39 1
  17   10   11 2
  18   10   14 1
  19   11   12 1
  20   11   40 1
  21   12   13 2
  22   12   22 1
  23   13   14 1
  24   14   15 1
  25   15   16 ar
  26   15   20 ar
  27   16   17 ar
  28   16   41 1
  29   17   18 ar
  30   17   42 1
  31   18   19 ar
  32   18   43 1
  33   19   20 ar
  34   19   44 1
  35   20   21 1
  36   22   23 ar
  37   22   27 ar
  38   23   24 ar
  39   23   45 1
  40   24   25 ar
  41   24   46 1
  42   25   26 ar
  43   25   47 1
  44   26   27 ar
  45   26   48 1
  46   27   49 1
  47   28   29 ar
  48   28   33 ar
  49   29   30 ar
  50   29   50 1
  51   30   31 ar
  52   30   51 1
  53   31   32 ar
  54   31   52 1
  55   32   33 ar
  56   32   53 1
  57   33   54 1
  58   34   35 3

#	End of record

