#	Name: ASD00840151
#	Creating user name:	WinNT
#	Creation time:	15. 06. 2019 18:37

#	Modifying user name:	WinNT
#	Modification time:	15. 06. 2019 18:37

#	Program:	/corina/corina34_cracker 3.40 0067  02.08.2006

@<TRIPOS>MOLECULE
ASD00840151
  69   73    0    0    0
SMALL
NO_CHARGES


@<TRIPOS>ATOM
   1 C1            -0.0441     1.3267     0.2246 C.2     
   2 N2             0.0008    -0.0049     0.0212 N.am    
   3 O3             0.9520     1.9196     0.5890 O.2     
   4 O4            -1.1916     2.0010     0.0186 O.3     
   5 N5             1.7113    -1.8599     2.1947 N.am    
   6 C6             1.6905    -0.6176     1.6831 C.2     
   7 C7             1.2506    -0.7375     0.2395 C.3     
   8 C8             1.0363    -2.2206     0.0424 C.ar    
   9 C9             0.6373    -2.9727    -1.0400 C.ar    
  10 C10            0.5278    -4.3478    -0.9232 C.ar    
  11 C11            0.8208    -4.9616     0.2848 C.ar    
  12 C12            1.2207    -4.2076     1.3710 C.ar    
  13 C13            1.3329    -2.8233     1.2582 C.ar    
  14 O14            1.9707     0.4073     2.2681 O.2     
  15 F15            0.7144    -6.3034     0.4004 F       
  16 C16            3.6054    -0.7718    -0.6416 C.ar    
  17 C17            2.3272    -0.2292    -0.6845 C.ar    
  18 C18            2.0557     0.7838    -1.5872 C.ar    
  19 C19            3.0776     1.2205    -2.4193 C.ar    
  20 C20            4.3242     0.6357    -2.3221 C.ar    
  21 N21            4.5528    -0.3289    -1.4510 N.ar    
  22 O22            3.8858    -1.7617     0.2428 O.3     
  23 C23            5.2183    -2.2778     0.2378 C.3     
  24 C24            5.3432    -3.3778     1.2939 C.3     
  25 S25            2.1431    -2.2085     3.7549 S.o2    
  26 O26            2.5715    -3.5634     3.7594 O.2     
  27 O27            2.9614    -1.1332     4.1946 O.2     
  28 C28            0.6757    -2.1474     4.7283 C.ar    
  29 C29           -0.0016    -0.9464     4.8869 C.ar    
  30 C30           -1.1560    -0.8989     5.6528 C.ar    
  31 C31           -1.6311    -2.0521     6.2587 C.ar    
  32 C32           -0.9504    -3.2503     6.0972 C.ar    
  33 C33            0.1972    -3.2961     5.3284 C.ar    
  34 O34           -2.7623    -2.0086     7.0106 O.3     
  35 C35           -3.1937    -3.2344     7.6050 C.3     
  36 O36            0.4667     0.1822     4.2922 O.3     
  37 C37           -0.2810     1.3824     4.4984 C.3     
  38 Cl38           0.0247    -5.3002    -2.2845 Cl      
  39 C39           -1.1406     3.3547     0.1313 C.ar    
  40 C40           -0.5667     4.1148    -0.8774 C.ar    
  41 C41           -0.5160     5.4903    -0.7605 C.ar    
  42 C42           -1.0364     6.1096     0.3608 C.ar    
  43 C43           -1.6089     5.3543     1.3675 C.ar    
  44 C44           -1.6675     3.9789     1.2525 C.ar    
  45 H45           -0.7943    -0.4782    -0.2697 H       
  46 H46            0.4097    -2.4902    -1.9791 H       
  47 H47            1.4471    -4.6920     2.3093 H       
  48 H48            1.0713     1.2245    -1.6433 H       
  49 H49            2.8990     2.0092    -3.1353 H       
  50 H50            5.1225     0.9715    -2.9674 H       
  51 H51            5.4443    -2.6908    -0.7453 H       
  52 H52            5.9198    -1.4750     0.4646 H       
  53 H53            6.3596    -3.7715     1.2901 H       
  54 H54            5.1172    -2.9648     2.2771 H       
  55 H55            4.6417    -4.1806     1.0671 H       
  56 H56           -1.6842     0.0347     5.7777 H       
  57 H57           -1.3200    -4.1487     6.5689 H       
  58 H58            0.7232    -4.2306     5.2002 H       
  59 H59           -4.1053    -3.0601     8.1765 H       
  60 H60           -3.3897    -3.9682     6.8232 H       
  61 H61           -2.4150    -3.6101     8.2689 H       
  62 H62            0.2004     2.2056     3.9705 H       
  63 H63           -1.2937     1.2494     4.1178 H       
  64 H64           -0.3200     1.6076     5.5641 H       
  65 H65           -0.1594     3.6314    -1.7532 H       
  66 H66           -0.0693     6.0824    -1.5455 H       
  67 H67           -0.9952     7.1851     0.4507 H       
  68 H68           -2.0144     5.8403     2.2426 H       
  69 H69           -2.1189     3.3897     2.0370 H       
@<TRIPOS>BOND
   1    1    2 am
   2    1    3 2
   3    1    4 1
   4    2    7 1
   5    2   45 1
   6    4   39 1
   7    5    6 am
   8    5   13 1
   9    5   25 am
  10    6    7 1
  11    6   14 2
  12    7    8 1
  13    7   17 1
  14    8    9 ar
  15    8   13 ar
  16    9   10 ar
  17    9   46 1
  18   10   11 ar
  19   10   38 1
  20   11   12 ar
  21   11   15 1
  22   12   13 ar
  23   12   47 1
  24   16   17 ar
  25   16   21 ar
  26   16   22 1
  27   17   18 ar
  28   18   19 ar
  29   18   48 1
  30   19   20 ar
  31   19   49 1
  32   20   21 ar
  33   20   50 1
  34   22   23 1
  35   23   24 1
  36   23   51 1
  37   23   52 1
  38   24   53 1
  39   24   54 1
  40   24   55 1
  41   25   26 2
  42   25   27 2
  43   25   28 1
  44   28   29 ar
  45   28   33 ar
  46   29   30 ar
  47   29   36 1
  48   30   31 ar
  49   30   56 1
  50   31   32 ar
  51   31   34 1
  52   32   33 ar
  53   32   57 1
  54   33   58 1
  55   34   35 1
  56   35   59 1
  57   35   60 1
  58   35   61 1
  59   36   37 1
  60   37   62 1
  61   37   63 1
  62   37   64 1
  63   39   40 ar
  64   39   44 ar
  65   40   41 ar
  66   40   65 1
  67   41   42 ar
  68   41   66 1
  69   42   43 ar
  70   42   67 1
  71   43   44 ar
  72   43   68 1
  73   44   69 1

#	End of record

