#	Name: ASD02560526
#	Creating user name:	WinNT
#	Creation time:	15. 06. 2019 20:25

#	Modifying user name:	WinNT
#	Modification time:	15. 06. 2019 20:25

#	Program:	/corina/corina34_cracker 3.40 0067  02.08.2006

@<TRIPOS>MOLECULE
ASD02560526
  49   53    0    0    0
SMALL
NO_CHARGES


@<TRIPOS>ATOM
   1 C1             0.1466     2.0460     0.2326 C.ar    
   2 C2            -0.0094     0.5894     0.1778 C.2     
   3 C3             1.0730    -0.1968     0.1499 C.2     
   4 N4             2.3530     0.3068     0.1707 N.pl3   
   5 C5             2.5920     1.6597     0.2218 C.2     
   6 C6             1.4517     2.5857     0.2547 C.ar    
   7 C7             3.5740    -0.3163     0.1492 C.2     
   8 C8             4.5289     0.6768     0.1879 C.2     
   9 N9             3.8928     1.8622     0.2313 N.2     
  10 C10            5.9967     0.4752     0.1826 C.ar    
  11 N11            3.8049    -1.6889     0.0986 N.3     
  12 C12            2.5552    -2.4400     0.2770 C.3     
  13 C13            6.5769    -0.4671     1.0308 C.ar    
  14 C14            6.8039     1.2237    -0.6757 C.ar    
  15 C15            1.8509    -2.5863    -1.0734 C.3     
  16 C16            2.8698    -3.8270     0.8410 C.3     
  17 C17            1.5681    -4.6093     1.0268 C.3     
  18 C18            0.8639    -4.7556    -0.3236 C.3     
  19 C19            0.5492    -3.3686    -0.8877 C.3     
  20 C20            7.9447    -0.6509     1.0210 C.ar    
  21 C21            8.7404     0.0976     0.1725 C.ar    
  22 C22            8.1710     1.0304    -0.6760 C.ar    
  23 Cl23           6.0905     2.3944    -1.7408 Cl      
  24 C24            1.6294     3.9673     0.3066 C.ar    
  25 C25            0.5271     4.7938     0.3360 C.ar    
  26 C26           -0.7561     4.2642     0.3148 C.ar    
  27 C27           -0.9546     2.9014     0.2687 C.ar    
  28 H28           -0.9965     0.1514     0.1602 H       
  29 H29            0.9366    -1.2674     0.1100 H       
  30 H30            4.2621    -1.9470    -0.7630 H       
  31 H31            1.9054    -1.9049     0.9695 H       
  32 H32            5.9571    -1.0519     1.6944 H       
  33 H33            1.6268    -1.5982    -1.4753 H       
  34 H34            2.5007    -3.1214    -1.7660 H       
  35 H35            3.5196    -4.3620     0.1485 H       
  36 H36            3.3715    -3.7227     1.8031 H       
  37 H37            1.7922    -5.5974     1.4287 H       
  38 H38            0.9183    -4.0742     1.7193 H       
  39 H39            1.5136    -5.2907    -1.0161 H       
  40 H40           -0.0635    -5.3129    -0.1912 H       
  41 H41           -0.1005    -2.8336    -0.1951 H       
  42 H42            0.0475    -3.4729    -1.8497 H       
  43 H43            8.3949    -1.3806     1.6777 H       
  44 H44            9.8104    -0.0497     0.1694 H       
  45 H45            8.7974     1.6118    -1.3362 H       
  46 H46            2.6243     4.3872     0.3241 H       
  47 H47            0.6627     5.8645     0.3762 H       
  48 H48           -1.6081     4.9274     0.3391 H       
  49 H49           -1.9565     2.4984     0.2525 H       
@<TRIPOS>BOND
   1    1    2 1
   2    1    6 ar
   3    1   27 ar
   4    2    3 2
   5    2   28 1
   6    3    4 1
   7    3   29 1
   8    4    5 1
   9    4    7 1
  10    5    6 1
  11    5    9 2
  12    6   24 ar
  13    7    8 2
  14    7   11 1
  15    8    9 1
  16    8   10 1
  17   10   13 ar
  18   10   14 ar
  19   11   12 1
  20   11   30 1
  21   12   16 1
  22   12   15 1
  23   12   31 1
  24   13   20 ar
  25   13   32 1
  26   14   23 1
  27   14   22 ar
  28   15   19 1
  29   15   33 1
  30   15   34 1
  31   16   17 1
  32   16   35 1
  33   16   36 1
  34   17   18 1
  35   17   37 1
  36   17   38 1
  37   18   19 1
  38   18   39 1
  39   18   40 1
  40   19   41 1
  41   19   42 1
  42   20   21 ar
  43   20   43 1
  44   21   22 ar
  45   21   44 1
  46   22   45 1
  47   24   25 ar
  48   24   46 1
  49   25   26 ar
  50   25   47 1
  51   26   27 ar
  52   26   48 1
  53   27   49 1

#	End of record

