#	Name: ASD00069099
#	Creating user name:	WinNT
#	Creation time:	15. 06. 2019 18:29

#	Modifying user name:	WinNT
#	Modification time:	15. 06. 2019 18:29

#	Program:	/corina/corina34_cracker 3.40 0067  02.08.2006

@<TRIPOS>MOLECULE
ASD00069099
  32   33    0    0    0
SMALL
NO_CHARGES


@<TRIPOS>ATOM
   1 C1            -0.0168     1.3906     0.0097 C.ar    
   2 C2             0.0021    -0.0041     0.0020 C.ar    
   3 C3             1.2129    -0.6782    -0.0132 C.ar    
   4 C4             2.4037     0.0363    -0.0207 C.ar    
   5 C5             2.3814     1.4242    -0.0130 C.ar    
   6 C6             1.1742     2.0988     0.0021 C.ar    
   7 N7            -1.2413     2.0762     0.0192 N.pl3   
   8 N8            -1.1999    -0.7217     0.0101 N.pl3   
   9 O9             6.1352    -1.3993     0.9775 O.3     
  10 C10            6.0679    -0.4823    -0.1179 C.3     
  11 C11            4.7543     0.3003    -0.0413 C.3     
  12 N12            3.6272    -0.6435    -0.0356 N.3     
  13 C13            3.7292    -1.5697     1.1016 C.3     
  14 C14            5.0530    -2.3336     1.0136 C.3     
  15 C15            7.2470     0.4899    -0.0435 C.3     
  16 H16            1.2304    -1.7580    -0.0188 H       
  17 H17            3.3085     1.9782    -0.0189 H       
  18 H18            1.1598     3.1787     0.0081 H       
  19 H19           -2.0749     1.5802     0.0205 H       
  20 H20           -1.2541     3.0461     0.0246 H       
  21 H21           -2.0469    -0.2490     0.0211 H       
  22 H22           -1.1858    -1.6916     0.0048 H       
  23 H23            6.1088    -1.0338    -1.0572 H       
  24 H24            4.7369     0.8936     0.8729 H       
  25 H25            4.6726     0.9596    -0.9055 H       
  26 H26            3.6954    -1.0063     2.0341 H       
  27 H27            2.8990    -2.2755     1.0717 H       
  28 H28            5.0644    -2.9389     0.1071 H       
  29 H29            5.1590    -2.9798     1.8849 H       
  30 H30            8.1819    -0.0682    -0.0942 H       
  31 H31            7.1951     1.1885    -0.8786 H       
  32 H32            7.2039     1.0421     0.8953 H       
@<TRIPOS>BOND
   1    1    2 ar
   2    1    6 ar
   3    1    7 1
   4    2    3 ar
   5    2    8 1
   6    3    4 ar
   7    3   16 1
   8    4    5 ar
   9    4   12 1
  10    5    6 ar
  11    5   17 1
  12    6   18 1
  13    7   19 1
  14    7   20 1
  15    8   21 1
  16    8   22 1
  17    9   10 1
  18    9   14 1
  19   10   11 1
  20   10   15 1
  21   10   23 1
  22   11   12 1
  23   11   24 1
  24   11   25 1
  25   12   13 1
  26   13   14 1
  27   13   26 1
  28   13   27 1
  29   14   28 1
  30   14   29 1
  31   15   30 1
  32   15   31 1
  33   15   32 1

#	End of record

