#	Name: ASD03090100
#	Creating user name:	WinNT
#	Creation time:	15. 06. 2019 20:28

#	Modifying user name:	WinNT
#	Modification time:	15. 06. 2019 20:28

#	Program:	/corina/corina34_cracker 3.40 0067  02.08.2006

@<TRIPOS>MOLECULE
ASD03090100
  42   44    0    0    0
SMALL
NO_CHARGES


@<TRIPOS>ATOM
   1 C1             0.0203     1.2164    -0.0257 C.2     
   2 C2            -0.1102    -0.2848    -0.0046 C.3     
   3 O3             1.1191     1.7292    -0.0557 O.2     
   4 N4            -1.0839     1.9890    -0.0167 N.am    
   5 C5            -0.9637     3.3821     0.0784 C.ar    
   6 C6            -1.8651     4.2036    -0.5857 C.ar    
   7 C7            -1.7471     5.5757    -0.4923 C.ar    
   8 C8            -0.7263     6.1350     0.2667 C.ar    
   9 C9             0.1752     5.3126     0.9314 C.ar    
  10 C10            0.0534     3.9405     0.8413 C.ar    
  11 S11           -0.5748     7.8864     0.3858 S.3     
  12 C12            0.8719     8.0987     1.4593 C.3     
  13 F13            0.6267     7.4948     2.6972 F       
  14 F14            1.9874     7.5019     0.8621 F       
  15 C15            1.2614    -0.9087    -0.0267 C.ar    
  16 C16            1.9152    -1.1797     1.1613 C.ar    
  17 C17            3.1723    -1.7514     1.1446 C.ar    
  18 C18            3.7798    -2.0542    -0.0674 C.ar    
  19 C19            3.1202    -1.7806    -1.2589 C.ar    
  20 C20            1.8609    -1.2140    -1.2349 C.ar    
  21 N21            5.0512    -2.6320    -0.0879 N.3     
  22 C22            5.3129    -3.3780     1.1571 C.3     
  23 C23            5.9616    -4.4732     0.2989 C.3     
  24 C24            5.0320    -3.9269    -0.7937 C.3     
  25 F25            7.3228    -4.2719     0.0463 F       
  26 F26            5.6598    -5.7762     0.7090 F       
  27 H27           -0.6342    -0.5913     0.9008 H       
  28 H28           -0.6728    -0.6129    -0.8787 H       
  29 H29           -1.9619     1.5810    -0.0761 H       
  30 H30           -2.6585     3.7688    -1.1756 H       
  31 H31           -2.4477     6.2146    -1.0094 H       
  32 H32            0.9687     5.7469     1.5214 H       
  33 H33            0.7518     3.3013     1.3609 H       
  34 H34            1.0632     9.1619     1.6052 H       
  35 H35            1.4425    -0.9437     2.1032 H       
  36 H36            3.6825    -1.9625     2.0727 H       
  37 H37            3.5897    -2.0148    -2.2029 H       
  38 H38            1.3455    -1.0055    -2.1608 H       
  39 H39            6.0142    -2.8768     1.8243 H       
  40 H40            4.4063    -3.7052     1.6660 H       
  41 H41            4.0504    -4.4005    -0.8054 H       
  42 H42            5.4951    -3.8908    -1.7798 H       
@<TRIPOS>BOND
   1    1    2 1
   2    1    3 2
   3    1    4 am
   4    2   15 1
   5    2   27 1
   6    2   28 1
   7    4    5 1
   8    4   29 1
   9    5    6 ar
  10    5   10 ar
  11    6    7 ar
  12    6   30 1
  13    7    8 ar
  14    7   31 1
  15    8    9 ar
  16    8   11 1
  17    9   10 ar
  18    9   32 1
  19   10   33 1
  20   11   12 1
  21   12   13 1
  22   12   14 1
  23   12   34 1
  24   15   16 ar
  25   15   20 ar
  26   16   17 ar
  27   16   35 1
  28   17   18 ar
  29   17   36 1
  30   18   19 ar
  31   18   21 1
  32   19   20 ar
  33   19   37 1
  34   20   38 1
  35   21   22 1
  36   21   24 1
  37   22   23 1
  38   22   39 1
  39   22   40 1
  40   23   24 1
  41   23   25 1
  42   23   26 1
  43   24   41 1
  44   24   42 1

#	End of record

