#	Name: ASD03331113
#	Creating user name:	WinNT
#	Creation time:	15. 06. 2019 20:38

#	Modifying user name:	WinNT
#	Modification time:	15. 06. 2019 20:38

#	Program:	/corina/corina34_cracker 3.40 0067  02.08.2006

@<TRIPOS>MOLECULE
ASD03331113
  63   65    0    0    0
SMALL
NO_CHARGES


@<TRIPOS>ATOM
   1 N1             0.3430     1.0992     0.9014 N.pl3   
   2 C2             0.3050    -0.2595     0.9330 C.2     
   3 C3             1.5042    -1.1712     0.9365 C.3     
   4 N4             2.4734    -0.6892     1.9329 N.3     
   5 C5             3.3981     0.2827     1.3462 C.3     
   6 C6             2.7032     1.1205     0.2766 C.3     
   7 C7             1.5581     1.9186     0.9060 C.3     
   8 C8            -0.9469     1.5435     0.8772 C.2     
   9 N9            -1.7485     0.5049     0.9108 N.2     
  10 C10           -1.0070    -0.6239     0.9486 C.2     
  11 C11           -1.5252    -2.0024     0.9979 C.2     
  12 O12           -0.7530    -2.9416     1.0290 O.2     
  13 N13           -2.8548    -2.2226     1.0085 N.am    
  14 C14            3.2034    -1.8091     2.5419 C.3     
  15 C15            4.2714    -1.2648     3.4928 C.3     
  16 C16           -4.7534    -3.6313     0.4610 C.2     
  17 C17           -3.3700    -3.5931     1.0575 C.3     
  18 C18           -3.4285    -4.0643     2.5119 C.3     
  19 C19           -4.2473    -3.0700     3.3376 C.3     
  20 O20           -5.4575    -2.6446     0.4987 O.2     
  21 N21           -5.2082    -4.7621    -0.1142 N.am    
  22 C22           -6.5059    -4.7674    -0.7940 C.3     
  23 C23           -4.0871    -5.4438     2.5750 C.3     
  24 C24           -2.0095    -4.1502     3.0777 C.3     
  25 C25           -1.3710     2.9594     0.8226 C.ar    
  26 C26           -2.3613     3.3611    -0.0777 C.ar    
  27 C27           -2.7531     4.6857    -0.1237 C.ar    
  28 C28           -2.1672     5.6127     0.7188 C.ar    
  29 C29           -1.1848     5.2208     1.6138 C.ar    
  30 C30           -0.7882     3.8983     1.6737 C.ar    
  31 F31           -0.6173     6.1325     2.4335 F       
  32 F32           -2.9343     2.4567    -0.9018 F       
  33 H33            1.1915    -2.1835     1.1925 H       
  34 H34            1.9657    -1.1700    -0.0510 H       
  35 H35            3.7708     0.9412     2.1308 H       
  36 H36            4.2373    -0.2478     0.8964 H       
  37 H37            3.4221     1.8080    -0.1690 H       
  38 H38            2.3048     0.4632    -0.4963 H       
  39 H39            1.3871     2.8273     0.3289 H       
  40 H40            1.8172     2.1804     1.9318 H       
  41 H41           -3.4706    -1.4735     0.9837 H       
  42 H42            2.5074    -2.4367     3.0984 H       
  43 H43            3.6803    -2.4001     1.7600 H       
  44 H44            4.7447    -2.0931     4.0199 H       
  45 H45            5.0234    -0.7207     2.9213 H       
  46 H46            3.8070    -0.5928     4.2144 H       
  47 H47           -2.7110    -4.2495     0.4891 H       
  48 H48           -5.2582    -3.0087     2.9346 H       
  49 H49           -4.2890    -3.4056     4.3738 H       
  50 H50           -3.7781    -2.0872     3.2927 H       
  51 H51           -4.6763    -5.5725    -0.0782 H       
  52 H52           -7.2888    -4.4997    -0.0844 H       
  53 H53           -6.4919    -4.0443    -1.6095 H       
  54 H54           -6.7026    -5.7622    -1.1938 H       
  55 H55           -3.5643    -6.1270     1.9057 H       
  56 H56           -4.0360    -5.8245     3.5951 H       
  57 H57           -5.1302    -5.3628     2.2693 H       
  58 H58           -1.5403    -3.1674     3.0327 H       
  59 H59           -2.0512    -4.4859     4.1139 H       
  60 H60           -1.4261    -4.8586     2.4894 H       
  61 H61           -3.5181     4.9976    -0.8193 H       
  62 H62           -2.4765     6.6467     0.6788 H       
  63 H63           -0.0255     3.5933     2.3748 H       
@<TRIPOS>BOND
   1    1    2 1
   2    1    7 1
   3    1    8 1
   4    2    3 1
   5    2   10 2
   6    3    4 1
   7    3   33 1
   8    3   34 1
   9    4    5 1
  10    4   14 1
  11    5    6 1
  12    5   35 1
  13    5   36 1
  14    6    7 1
  15    6   37 1
  16    6   38 1
  17    7   39 1
  18    7   40 1
  19    8    9 2
  20    8   25 1
  21    9   10 1
  22   10   11 1
  23   11   12 2
  24   11   13 am
  25   13   17 1
  26   13   41 1
  27   14   15 1
  28   14   42 1
  29   14   43 1
  30   15   44 1
  31   15   45 1
  32   15   46 1
  33   16   20 2
  34   16   21 am
  35   16   17 1
  36   17   18 1
  37   17   47 1
  38   18   19 1
  39   18   23 1
  40   18   24 1
  41   19   48 1
  42   19   49 1
  43   19   50 1
  44   21   22 1
  45   21   51 1
  46   22   52 1
  47   22   53 1
  48   22   54 1
  49   23   55 1
  50   23   56 1
  51   23   57 1
  52   24   58 1
  53   24   59 1
  54   24   60 1
  55   25   26 ar
  56   25   30 ar
  57   26   27 ar
  58   26   32 1
  59   27   28 ar
  60   27   61 1
  61   28   29 ar
  62   28   62 1
  63   29   30 ar
  64   29   31 1
  65   30   63 1

#	End of record

