#	Name: ASD01882725
#	Creating user name:	WinNT
#	Creation time:	15. 06. 2019 19:45

#	Modifying user name:	WinNT
#	Modification time:	15. 06. 2019 19:45

#	Program:	/corina/corina34_cracker 3.40 0067  02.08.2006

@<TRIPOS>MOLECULE
ASD01882725
  44   46    0    0    0
SMALL
NO_CHARGES


@<TRIPOS>ATOM
   1 C1            -0.0180     1.4794     0.0102 C.ar    
   2 C2             0.0021    -0.0041     0.0020 C.ar    
   3 C3            -1.1946    -0.7165     0.0039 C.ar    
   4 C4             1.2196    -0.6848    -0.0133 C.ar    
   5 C5             1.2425    -2.0634    -0.0209 C.ar    
   6 C6            -1.1700    -2.1003    -0.0038 C.ar    
   7 N7            -2.1682    -3.0725    -0.0047 N.am    
   8 C8             0.0527    -2.7774    -0.0134 C.ar    
   9 N9            -0.2418    -4.1384    -0.0174 N.am    
  10 C10           -1.5802    -4.2835    -0.0143 C.2     
  11 C11           -3.6113    -2.8199     0.0035 C.3     
  12 C12            0.7382    -5.2272    -0.0325 C.3     
  13 C13            1.0934    -5.6136     1.4047 C.3     
  14 C14           -0.1692    -6.0739     2.1360 C.3     
  15 C15            2.1169    -6.7507     1.3890 C.3     
  16 C16            1.6877    -4.4024     2.1264 C.3     
  17 O17           -2.1693    -5.3482    -0.0176 O.2     
  18 C18            1.1530     3.5750     0.0102 C.ar    
  19 C19           -0.0556     4.2476     0.0253 C.ar    
  20 C20           -1.2454     3.5423     0.0387 C.ar    
  21 C21           -1.2326     2.1622     0.0312 C.ar    
  22 C22            1.1777     2.1951     0.0026 C.ar    
  23 H23           -2.1382    -0.1911     0.0116 H       
  24 H24            2.1465    -0.1306    -0.0195 H       
  25 H25            2.1867    -2.5877    -0.0331 H       
  26 H26           -3.9739    -2.7514    -1.0222 H       
  27 H27           -4.1202    -3.6369     0.5150 H       
  28 H28           -3.8133    -1.8836     0.5236 H       
  29 H29            0.3148    -6.0900    -0.5466 H       
  30 H30            1.6377    -4.8992    -0.5534 H       
  31 H31           -0.5926    -6.9368     1.6218 H       
  32 H32            0.0838    -6.3492     3.1598 H       
  33 H33           -0.8984    -5.2638     2.1472 H       
  34 H34            3.0164    -6.4227     0.8680 H       
  35 H35            2.3700    -7.0260     2.4129 H       
  36 H36            1.6935    -7.6135     0.8749 H       
  37 H37            0.9586    -3.5923     2.1376 H       
  38 H38            1.9408    -4.6777     3.1502 H       
  39 H39            2.5873    -4.0744     1.6054 H       
  40 H40            2.0790     4.1307    -0.0002 H       
  41 H41           -0.0702     5.3275     0.0312 H       
  42 H42           -2.1862     4.0725     0.0508 H       
  43 H43           -2.1622     1.6125     0.0414 H       
  44 H44            2.1218     1.6709    -0.0088 H       
@<TRIPOS>BOND
   1    1    2 1
   2    1   22 ar
   3    1   21 ar
   4    2    4 ar
   5    2    3 ar
   6    3    6 ar
   7    3   23 1
   8    4    5 ar
   9    4   24 1
  10    5    8 ar
  11    5   25 1
  12    6    8 ar
  13    6    7 1
  14    7   10 am
  15    7   11 1
  16    8    9 1
  17    9   10 am
  18    9   12 1
  19   10   17 2
  20   11   26 1
  21   11   27 1
  22   11   28 1
  23   12   13 1
  24   12   29 1
  25   12   30 1
  26   13   14 1
  27   13   15 1
  28   13   16 1
  29   14   31 1
  30   14   32 1
  31   14   33 1
  32   15   34 1
  33   15   35 1
  34   15   36 1
  35   16   37 1
  36   16   38 1
  37   16   39 1
  38   18   19 ar
  39   18   22 ar
  40   18   40 1
  41   19   20 ar
  42   19   41 1
  43   20   21 ar
  44   20   42 1
  45   21   43 1
  46   22   44 1

#	End of record

