#	Name: ASD03330070
#	Creating user name:	WinNT
#	Creation time:	15. 06. 2019 20:36

#	Modifying user name:	WinNT
#	Modification time:	15. 06. 2019 20:36

#	Program:	/corina/corina34_cracker 3.40 0067  02.08.2006

@<TRIPOS>MOLECULE
ASD03330070
  75   79    0    0    0
SMALL
NO_CHARGES


@<TRIPOS>ATOM
   1 C1             0.1315     1.4725     0.0118 C.2     
   2 C2             0.0253     0.2589     0.6218 C.2     
   3 C3             1.3312     2.1203     0.2220 C.2     
   4 C4             2.2177     1.4270     1.0145 C.2     
   5 S5             1.4999    -0.1000     1.5082 S.3     
   6 C6             3.5657     1.8938     1.3914 C.ar    
   7 C7             3.9704     1.8645     2.7296 C.ar    
   8 C8             4.4453     2.3615     0.4125 C.ar    
   9 C9             5.7041     2.7960     0.7712 C.ar    
  10 C10            6.0976     2.7692     2.0988 C.ar    
  11 C11            5.2329     2.3023     3.0747 C.ar    
  12 C12            1.6397     3.4495    -0.3571 C.ar    
  13 C13            1.5490     3.6513    -1.7336 C.ar    
  14 C14            2.0162     4.5043     0.4733 C.ar    
  15 C15            2.3022     5.7395    -0.0714 C.ar    
  16 C16            2.2160     5.9322    -1.4386 C.ar    
  17 C17            1.8375     4.8909    -2.2669 C.ar    
  18 C18           -1.1465    -0.6182     0.5498 C.2     
  19 O19           -2.2655    -0.1471     0.6365 O.2     
  20 S20            2.5828     7.5122    -2.1269 S.o2    
  21 N21           -0.9852    -1.9464     0.3877 N.am    
  22 C22           -2.1491    -2.8261     0.2140 C.3     
  23 C23            0.3581    -2.5413     0.3752 C.3     
  24 C24            0.5177    -3.3719    -0.9021 C.3     
  25 C25           -0.6215    -4.3901    -0.9894 C.3     
  26 C26           -1.9562    -3.6529    -1.0612 C.3     
  27 C27           -0.4488    -5.2318    -2.2274 C.ar    
  28 C28           -1.3794    -5.1603    -3.2471 C.ar    
  29 C29           -1.2210    -5.9325    -4.3827 C.ar    
  30 C30           -0.1318    -6.7757    -4.4988 C.ar    
  31 C31            0.7992    -6.8465    -3.4795 C.ar    
  32 C32            0.6431    -6.0712    -2.3458 C.ar    
  33 Cl33           2.8874     1.2795     3.9537 Cl      
  34 C34           -0.5960    -5.2775     0.2284 C.2     
  35 O35            0.3217    -5.1984     1.0173 O.2     
  36 N36           -1.5930    -6.1592     0.4407 N.am    
  37 C37            4.3619     7.4521    -2.4756 C.3     
  38 C38            4.8076     8.7833    -3.0841 C.3     
  39 C39            6.3083     8.7326    -3.3782 C.3     
  40 C40            6.7540    10.0637    -3.9866 C.3     
  41 F41            6.4903    11.1003    -3.0848 F       
  42 F42            8.1261    10.0174    -4.2556 F       
  43 F43            6.0531    10.2908    -5.1759 F       
  44 Cl44           7.6845     3.3171     2.5409 Cl      
  45 O45            1.8385     7.5487    -3.3368 O.2     
  46 O46            2.3119     8.4253    -1.0723 O.2     
  47 H47           -0.6592     1.8921    -0.5924 H       
  48 H48            4.1404     2.3825    -0.6234 H       
  49 H49            6.3848     3.1579     0.0149 H       
  50 H50            5.5460     2.2840     4.1081 H       
  51 H51            1.2540     2.8390    -2.3813 H       
  52 H52            2.0834     4.3550     1.5408 H       
  53 H53            2.5935     6.5574     0.5708 H       
  54 H54            1.7720     5.0472    -3.3336 H       
  55 H55           -2.2346    -3.4927     1.0722 H       
  56 H56           -3.0529    -2.2233     0.1254 H       
  57 H57            1.1081    -1.7505     0.3929 H       
  58 H58            0.4812    -3.1841     1.2468 H       
  59 H59            0.4848    -2.7138    -1.7705 H       
  60 H60            1.4731    -3.8960    -0.8783 H       
  61 H61           -2.7672    -4.3762    -1.1469 H       
  62 H62           -1.9620    -2.9946    -1.9299 H       
  63 H63           -2.2303    -4.5015    -3.1564 H       
  64 H64           -1.9484    -5.8772    -5.1791 H       
  65 H65           -0.0085    -7.3795    -5.3857 H       
  66 H66            1.6500    -7.5056    -3.5701 H       
  67 H67            1.3706    -6.1265    -1.5494 H       
  68 H68           -2.2883    -6.2748    -0.2257 H       
  69 H69           -1.6152    -6.6782     1.2598 H       
  70 H70            4.9080     7.2752    -1.5490 H       
  71 H71            4.5674     6.6445    -3.1782 H       
  72 H72            4.2616     8.9602    -4.0107 H       
  73 H73            4.6022     9.5908    -2.3814 H       
  74 H74            6.8543     8.5557    -2.4516 H       
  75 H75            6.5137     7.9250    -4.0808 H       
@<TRIPOS>BOND
   1    1    2 2
   2    1    3 1
   3    1   47 1
   4    2   18 1
   5    2    5 1
   6    3    4 2
   7    3   12 1
   8    4    5 1
   9    4    6 1
  10    6    7 ar
  11    6    8 ar
  12    7   33 1
  13    7   11 ar
  14    8    9 ar
  15    8   48 1
  16    9   10 ar
  17    9   49 1
  18   10   11 ar
  19   10   44 1
  20   11   50 1
  21   12   13 ar
  22   12   14 ar
  23   13   17 ar
  24   13   51 1
  25   14   15 ar
  26   14   52 1
  27   15   16 ar
  28   15   53 1
  29   16   17 ar
  30   16   20 1
  31   17   54 1
  32   18   19 2
  33   18   21 am
  34   20   37 1
  35   20   45 2
  36   20   46 2
  37   21   22 1
  38   21   23 1
  39   22   26 1
  40   22   55 1
  41   22   56 1
  42   23   24 1
  43   23   57 1
  44   23   58 1
  45   24   25 1
  46   24   59 1
  47   24   60 1
  48   25   26 1
  49   25   27 1
  50   25   34 1
  51   26   61 1
  52   26   62 1
  53   27   28 ar
  54   27   32 ar
  55   28   29 ar
  56   28   63 1
  57   29   30 ar
  58   29   64 1
  59   30   31 ar
  60   30   65 1
  61   31   32 ar
  62   31   66 1
  63   32   67 1
  64   34   35 2
  65   34   36 am
  66   36   68 1
  67   36   69 1
  68   37   38 1
  69   37   70 1
  70   37   71 1
  71   38   39 1
  72   38   72 1
  73   38   73 1
  74   39   40 1
  75   39   74 1
  76   39   75 1
  77   40   41 1
  78   40   42 1
  79   40   43 1

#	End of record

