#	Name: ASD01680092
#	Creating user name:	WinNT
#	Creation time:	15. 06. 2019 19:22

#	Modifying user name:	WinNT
#	Modification time:	15. 06. 2019 19:22

#	Program:	/corina/corina34_cracker 3.40 0067  02.08.2006

@<TRIPOS>MOLECULE
ASD01680092
  90   93    0    0    0
SMALL
NO_CHARGES


@<TRIPOS>ATOM
   1 C1            -1.5066     1.1892    -0.5738 C.2     
   2 C2            -1.3110    -0.3029    -0.6530 C.3     
   3 C3            -1.8131    -0.8120    -2.0056 C.3     
   4 O4            -0.5544     1.9158    -0.4150 O.2     
   5 O5            -2.7381     1.7115    -0.6852 O.3     
   6 N6             0.1129    -0.6170    -0.5110 N.am    
   7 S7             0.7295    -1.0127     0.9741 S.o2    
   8 O8             2.1085    -1.2914     0.7748 O.2     
   9 O9             0.2594    -0.0241     1.8801 O.2     
  10 C10           -0.0195    -2.5311     1.4620 C.ar    
  11 C11           -1.0981    -2.5234     2.3267 C.ar    
  12 C12           -1.6857    -3.7146     2.7095 C.ar    
  13 C13           -1.1950    -4.9136     2.2273 C.ar    
  14 C14           -0.1171    -4.9214     1.3619 C.ar    
  15 C15            0.4678    -3.7298     0.9757 C.ar    
  16 C16            1.6397    -3.7380     0.0283 C.3     
  17 C17           -1.8350    -6.2124     2.6454 C.3     
  18 C18           -1.6330    -1.2162     2.8523 C.3     
  19 N19           -1.5147    -2.2408    -2.1310 N.am    
  20 C20           -1.8678    -2.9076    -3.2478 C.2     
  21 O21           -2.4326    -2.3247    -4.1490 O.2     
  22 C22           -1.5609    -4.3773    -3.3767 C.3     
  23 O23           -2.0298    -4.8528    -4.6400 O.3     
  24 N24           -3.9661    -7.0201    -5.4891 N.am    
  25 C25           -2.9872    -7.0999    -4.3897 C.3     
  26 C26           -1.7871    -6.2431    -4.8643 C.3     
  27 C27           -1.7558    -6.5644    -6.3819 C.3     
  28 C28           -3.2510    -6.7092    -6.7355 C.3     
  29 C29           -3.4401    -7.8465    -7.7414 C.3     
  30 N30           -2.8120    -7.4823    -9.0139 N.pl3   
  31 C31           -2.7648    -8.4030   -10.0542 C.ar    
  32 C32           -3.3159    -9.6687    -9.8803 C.ar    
  33 C33           -3.2618   -10.5748   -10.9237 C.ar    
  34 C34           -2.6563   -10.1835   -12.1107 C.ar    
  35 C35           -2.1300    -8.9118   -12.2140 C.ar    
  36 N36           -2.2006    -8.0659   -11.2035 N.ar    
  37 C37           -5.2957    -7.2070    -5.3720 C.2     
  38 O38           -5.9980    -7.2036    -6.3608 O.2     
  39 C39           -5.9099    -7.4203    -4.0125 C.3     
  40 C40           -7.4215    -7.6056    -4.1590 C.3     
  41 C41           -8.0450    -7.8221    -2.7787 C.3     
  42 C42           -9.5779    -7.8853    -2.8968 C.3     
  43 C43          -10.0022    -9.2779    -2.3865 C.3     
  44 C44           -8.8412    -9.7120    -1.4577 C.3     
  45 C45           -7.5912    -9.1785    -2.2008 C.3     
  46 H46           -1.8711    -0.7858     0.1477 H       
  47 H47           -2.8900    -0.6583    -2.0747 H       
  48 H48           -1.3159    -0.2654    -2.8069 H       
  49 H49           -2.8136     2.6738    -0.6280 H       
  50 H50            0.6946    -0.5931    -1.2869 H       
  51 H51           -2.5278    -3.7086     3.3855 H       
  52 H52            0.2665    -5.8581     0.9854 H       
  53 H53            2.5679    -3.6955     0.5981 H       
  54 H54            1.6198    -4.6512    -0.5664 H       
  55 H55            1.5790    -2.8730    -0.6322 H       
  56 H56           -2.6315    -6.4666     1.9461 H       
  57 H57           -1.0851    -7.0035     2.6452 H       
  58 H58           -2.2511    -6.1064     3.6472 H       
  59 H59           -2.1666    -0.6959     2.0570 H       
  60 H60           -2.3142    -1.4094     3.6810 H       
  61 H61           -0.8050    -0.5980     3.1992 H       
  62 H62           -1.0630    -2.7070    -1.4102 H       
  63 H63           -0.4840    -4.5310    -3.3077 H       
  64 H64           -2.0580    -4.9240    -2.5754 H       
  65 H65           -3.4102    -6.6862    -3.4743 H       
  66 H66           -2.6770    -8.1329    -4.2321 H       
  67 H67           -0.8644    -6.5598    -4.3782 H       
  68 H68           -1.3051    -5.7442    -6.9406 H       
  69 H69           -1.2235    -7.4973    -6.5677 H       
  70 H70           -3.6250    -5.7750    -7.1543 H       
  71 H71           -2.9774    -8.7544    -7.3545 H       
  72 H72           -4.5048    -8.0196    -7.8981 H       
  73 H73           -2.4292    -6.5987    -9.1304 H       
  74 H74           -3.7791    -9.9400    -8.9432 H       
  75 H75           -3.6809   -11.5646   -10.8177 H       
  76 H76           -2.5974   -10.8676   -12.9444 H       
  77 H77           -1.6582    -8.6034   -13.1353 H       
  78 H78           -5.4776    -8.3097    -3.5539 H       
  79 H79           -5.7094    -6.5531    -3.3832 H       
  80 H80           -7.8538    -6.7162    -4.6175 H       
  81 H81           -7.6219    -8.4727    -4.7883 H       
  82 H82           -7.7552    -7.0137    -2.1075 H       
  83 H83          -10.0321    -7.1081    -2.2822 H       
  84 H84           -9.8776    -7.7617    -3.9375 H       
  85 H85          -10.9346    -9.2110    -1.8259 H       
  86 H86          -10.1055    -9.9740    -3.2188 H       
  87 H87           -8.9359    -9.2457    -0.4771 H       
  88 H88           -8.8033   -10.7977    -1.3683 H       
  89 H89           -7.3052    -9.8586    -3.0031 H       
  90 H90           -6.7642    -9.0391    -1.5046 H       
@<TRIPOS>BOND
   1    1    2 1
   2    1    4 2
   3    1    5 1
   4    2    3 1
   5    2    6 1
   6    2   46 1
   7    3   19 1
   8    3   47 1
   9    3   48 1
  10    5   49 1
  11    6    7 am
  12    6   50 1
  13    7    8 2
  14    7    9 2
  15    7   10 1
  16   10   11 ar
  17   10   15 ar
  18   11   12 ar
  19   11   18 1
  20   12   13 ar
  21   12   51 1
  22   13   14 ar
  23   13   17 1
  24   14   15 ar
  25   14   52 1
  26   15   16 1
  27   16   53 1
  28   16   54 1
  29   16   55 1
  30   17   56 1
  31   17   57 1
  32   17   58 1
  33   18   59 1
  34   18   60 1
  35   18   61 1
  36   19   20 am
  37   19   62 1
  38   20   21 2
  39   20   22 1
  40   22   23 1
  41   22   63 1
  42   22   64 1
  43   23   26 1
  44   24   25 1
  45   24   28 1
  46   24   37 am
  47   25   26 1
  48   25   65 1
  49   25   66 1
  50   26   27 1
  51   26   67 1
  52   27   28 1
  53   27   68 1
  54   27   69 1
  55   28   29 1
  56   28   70 1
  57   29   30 1
  58   29   71 1
  59   29   72 1
  60   30   31 1
  61   30   73 1
  62   31   32 ar
  63   31   36 ar
  64   32   33 ar
  65   32   74 1
  66   33   34 ar
  67   33   75 1
  68   34   35 ar
  69   34   76 1
  70   35   36 ar
  71   35   77 1
  72   37   38 2
  73   37   39 1
  74   39   40 1
  75   39   78 1
  76   39   79 1
  77   40   41 1
  78   40   80 1
  79   40   81 1
  80   41   42 1
  81   41   45 1
  82   41   82 1
  83   42   43 1
  84   42   83 1
  85   42   84 1
  86   43   44 1
  87   43   85 1
  88   43   86 1
  89   44   45 1
  90   44   87 1
  91   44   88 1
  92   45   89 1
  93   45   90 1

#	End of record

