#	Name: ASD02030134
#	Creating user name:	WinNT
#	Creation time:	15. 06. 2019 20:14

#	Modifying user name:	WinNT
#	Modification time:	15. 06. 2019 20:14

#	Program:	/corina/corina34_cracker 3.40 0067  02.08.2006

@<TRIPOS>MOLECULE
ASD02030134
  61   65    0    0    0
SMALL
NO_CHARGES


@<TRIPOS>ATOM
   1 N1             0.1954     1.0746    -0.5242 N.am    
   2 C2            -0.1036    -0.3640    -0.4916 C.3     
   3 C3            -0.9627    -0.6580     0.7444 C.3     
   4 N4            -2.0782     0.2982     0.7793 N.am    
   5 C5            -1.7792     1.7367     0.7466 C.3     
   6 C6            -0.9199     2.0309    -0.4838 C.3     
   7 C7             1.4697     1.5091    -0.5846 C.2     
   8 C8             2.5853     0.5450    -0.4776 C.2     
   9 N9             3.8628     0.8467    -0.3893 N.2     
  10 N10            2.4726    -0.7956    -0.4475 N.2     
  11 C11            3.6820    -1.2854    -0.3468 C.2     
  12 N12            4.5411    -0.2462    -0.3114 N.pl3   
  13 O13            1.7018     2.6939    -0.7270 O.2     
  14 C14           -3.3526    -0.1364     0.8396 C.2     
  15 C15           -3.6366    -1.5871     0.9396 C.ar    
  16 O16           -4.2686     0.6616     0.8121 O.2     
  17 C17           -0.3725     3.4571    -0.3987 C.3     
  18 C18           -1.7653     1.8762    -1.7495 C.3     
  19 C19            5.9356    -0.3392    -0.2079 C.ar    
  20 C20            6.7097     0.8132    -0.1816 C.ar    
  21 C21            8.0838     0.7182    -0.0796 C.ar    
  22 C22            8.6888    -0.5230    -0.0042 C.ar    
  23 C23            7.9206    -1.6725    -0.0301 C.ar    
  24 C24            6.5456    -1.5839    -0.1257 C.ar    
  25 C25           -4.9329    -2.0531     0.7314 C.ar    
  26 N26           -2.6530    -2.4324     1.2212 N.ar    
  27 C27           -2.8626    -3.7271     1.3189 C.ar    
  28 C28           -4.1278    -4.2595     1.1299 C.ar    
  29 C29           -5.1831    -3.4127     0.8283 C.ar    
  30 C30           -1.7108    -4.6442     1.6405 C.3     
  31 C31           -2.1117    -5.8624     2.4891 C.3     
  32 C32           -1.1560    -6.6888     1.6125 C.3     
  33 C33           -1.3806    -5.6369     0.5134 C.3     
  34 H34           -0.6499    -0.6446    -1.3920 H       
  35 H35            0.8263    -0.9296    -0.4337 H       
  36 H36           -1.3534    -1.6739     0.6851 H       
  37 H37           -0.3582    -0.5479     1.6447 H       
  38 H38           -2.7092     2.3024     0.6887 H       
  39 H39           -1.2329     2.0174     1.6470 H       
  40 H40            3.9443    -2.3319    -0.2976 H       
  41 H41            0.3795     3.5113     0.3885 H       
  42 H42            0.0795     3.7302    -1.3523 H       
  43 H43           -1.1864     4.1457    -0.1719 H       
  44 H44           -2.6009     2.5753    -1.7160 H       
  45 H45           -1.1507     2.0863    -2.6249 H       
  46 H46           -2.1466     0.8569    -1.8095 H       
  47 H47            6.2378     1.7828    -0.2412 H       
  48 H48            8.6864     1.6142    -0.0591 H       
  49 H49            9.7635    -0.5947     0.0748 H       
  50 H50            8.3959    -2.6404     0.0290 H       
  51 H51            5.9461    -2.4820    -0.1456 H       
  52 H52           -5.7316    -1.3644     0.4983 H       
  53 H53           -4.2892    -5.3242     1.2119 H       
  54 H54           -6.1786    -3.8033     0.6767 H       
  55 H55           -0.8404    -4.1121     2.0243 H       
  56 H56           -1.7977    -5.7915     3.5305 H       
  57 H57           -3.1588    -6.1451     2.3800 H       
  58 H58           -0.1330    -6.7165     1.9878 H       
  59 H59           -1.5411    -7.6760     1.3573 H       
  60 H60           -2.2278    -5.8579    -0.1359 H       
  61 H61           -0.4764    -5.3840    -0.0403 H       
@<TRIPOS>BOND
   1    1    2 1
   2    1    7 am
   3    1    6 1
   4    2    3 1
   5    2   34 1
   6    2   35 1
   7    3    4 1
   8    3   36 1
   9    3   37 1
  10    4    5 1
  11    4   14 am
  12    5    6 1
  13    5   38 1
  14    5   39 1
  15    6   17 1
  16    6   18 1
  17    7    8 1
  18    7   13 2
  19    8    9 2
  20    8   10 1
  21    9   12 1
  22   10   11 2
  23   11   12 1
  24   11   40 1
  25   12   19 1
  26   14   15 1
  27   14   16 2
  28   15   26 ar
  29   15   25 ar
  30   17   41 1
  31   17   42 1
  32   17   43 1
  33   18   44 1
  34   18   45 1
  35   18   46 1
  36   19   20 ar
  37   19   24 ar
  38   20   21 ar
  39   20   47 1
  40   21   22 ar
  41   21   48 1
  42   22   23 ar
  43   22   49 1
  44   23   24 ar
  45   23   50 1
  46   24   51 1
  47   25   29 ar
  48   25   52 1
  49   26   27 ar
  50   27   28 ar
  51   27   30 1
  52   28   29 ar
  53   28   53 1
  54   29   54 1
  55   30   31 1
  56   30   33 1
  57   30   55 1
  58   31   32 1
  59   31   56 1
  60   31   57 1
  61   32   33 1
  62   32   58 1
  63   32   59 1
  64   33   60 1
  65   33   61 1

#	End of record

