#	Name: ASD03331863
#	Creating user name:	WinNT
#	Creation time:	15. 06. 2019 20:40

#	Modifying user name:	WinNT
#	Modification time:	15. 06. 2019 20:40

#	Program:	/corina/corina34_cracker 3.40 0067  02.08.2006

@<TRIPOS>MOLECULE
ASD03331863
  51   54    0    0    0
SMALL
NO_CHARGES


@<TRIPOS>ATOM
   1 C1             1.1645    -0.4243    -1.2316 C.ar    
   2 C2             0.6532     0.0106    -2.4406 C.ar    
   3 C3             1.1633     1.1465    -3.0419 C.ar    
   4 C4             2.1854     1.8507    -2.4360 C.ar    
   5 C5             2.7007     1.4168    -1.2217 C.ar    
   6 C6             2.1866     0.2754    -0.6207 C.ar    
   7 N7             3.7366     2.1277    -0.6055 N.am    
   8 C8             3.7763     3.4721    -0.6928 C.2     
   9 N9             4.7206     4.1632    -0.0242 N.am    
  10 O10            2.9602     4.0613    -1.3749 O.2     
  11 C11            4.8226     5.5491    -0.1904 C.ar    
  12 C12            3.7730     7.6829    -0.5319 C.ar    
  13 C13            3.6764     6.3140    -0.3670 C.ar    
  14 C14            6.0675     6.1600    -0.1731 C.ar    
  15 C15            6.1640     7.5392    -0.3389 C.ar    
  16 C16            5.0087     8.2981    -0.5213 C.ar    
  17 C17            7.4921     8.1992    -0.3210 C.ar    
  18 N18            8.5790     7.4603    -0.1459 N.ar    
  19 C19            9.7817     8.0132    -0.1245 C.ar    
  20 C20            9.9004     9.3806    -0.2876 C.ar    
  21 C21            8.7378    10.1335    -0.4702 C.ar    
  22 N22            7.5635     9.5126    -0.4860 N.ar    
  23 N23            8.8090    11.5071    -0.6372 N.3     
  24 C24            7.4653    12.0884    -0.8120 C.3     
  25 C25            7.2834    13.1577     0.2857 C.3     
  26 C26            8.7432    13.5205     0.6655 C.3     
  27 C27            9.4520    12.1499     0.5286 C.3     
  28 C28           -0.4621    -0.7553    -3.1045 C.3     
  29 F29           -1.6943    -0.2555    -2.6696 F       
  30 F30           -0.3643    -0.6119    -4.4927 F       
  31 F31           -0.3629    -2.1095    -2.7674 F       
  32 H32            0.7611    -1.3095    -0.7625 H       
  33 H33            0.7623     1.4833    -3.9865 H       
  34 H34            2.5836     2.7376    -2.9063 H       
  35 H35            2.5855    -0.0648     0.3235 H       
  36 H36            4.4261     1.6530    -0.1154 H       
  37 H37            5.3295     3.7001     0.5722 H       
  38 H38            2.8790     8.2731    -0.6695 H       
  39 H39            2.7072     5.8376    -0.3758 H       
  40 H40            6.9594     5.5678    -0.0312 H       
  41 H41            5.0803     9.3679    -0.6504 H       
  42 H42           10.6607     7.4024     0.0192 H       
  43 H43           10.8699     9.8563    -0.2738 H       
  44 H44            7.3862    12.5501    -1.7962 H       
  45 H45            6.7082    11.3119    -0.7024 H       
  46 H46            6.7597    14.0288    -0.1079 H       
  47 H47            6.7537    12.7432     1.1434 H       
  48 H48            9.1593    14.2467    -0.0328 H       
  49 H49            8.8001    13.8890     1.6897 H       
  50 H50            9.2964    11.5510     1.4259 H       
  51 H51           10.5172    12.2902     0.3450 H       
@<TRIPOS>BOND
   1    1    2 ar
   2    1    6 ar
   3    1   32 1
   4    2    3 ar
   5    2   28 1
   6    3    4 ar
   7    3   33 1
   8    4    5 ar
   9    4   34 1
  10    5    6 ar
  11    5    7 1
  12    6   35 1
  13    7    8 am
  14    7   36 1
  15    8    9 am
  16    8   10 2
  17    9   11 1
  18    9   37 1
  19   11   14 ar
  20   11   13 ar
  21   12   13 ar
  22   12   16 ar
  23   12   38 1
  24   13   39 1
  25   14   15 ar
  26   14   40 1
  27   15   16 ar
  28   15   17 1
  29   16   41 1
  30   17   18 ar
  31   17   22 ar
  32   18   19 ar
  33   19   20 ar
  34   19   42 1
  35   20   21 ar
  36   20   43 1
  37   21   22 ar
  38   21   23 1
  39   23   24 1
  40   23   27 1
  41   24   25 1
  42   24   44 1
  43   24   45 1
  44   25   26 1
  45   25   46 1
  46   25   47 1
  47   26   27 1
  48   26   48 1
  49   26   49 1
  50   27   50 1
  51   27   51 1
  52   28   29 1
  53   28   30 1
  54   28   31 1

#	End of record

