#	Name: ASD00311049
#	Creating user name:	WinNT
#	Creation time:	15. 06. 2019 18:34

#	Modifying user name:	WinNT
#	Modification time:	15. 06. 2019 18:34

#	Program:	/corina/corina34_cracker 3.40 0067  02.08.2006

@<TRIPOS>MOLECULE
ASD00311049
  42   45    0    0    0
SMALL
NO_CHARGES


@<TRIPOS>ATOM
   1 C1            -0.0167     1.3778     0.0096 C.2     
   2 C2             0.0021    -0.0041     0.0020 C.2     
   3 C3             1.2579    -0.6768    -0.0136 C.2     
   4 C4             2.4322     0.0676    -0.0208 C.2     
   5 C5             2.3577     1.4764    -0.0125 C.2     
   6 N6             1.1647     2.0908     0.0022 N.am    
   7 C7            -1.3437    -0.5753     0.0118 C.2     
   8 C8            -2.3233     0.3268     0.0260 C.2     
   9 S9            -1.6792     1.9566     0.0358 S.3     
  10 O10            3.3821     2.1389    -0.0183 O.2     
  11 C11           -1.5964    -2.0353     0.0059 C.ar    
  12 C12           -2.2075    -2.6444     1.1015 C.ar    
  13 C13           -2.4402    -4.0044     1.0902 C.ar    
  14 C14           -2.0682    -4.7635    -0.0049 C.ar    
  15 C15           -1.4613    -4.1651    -1.0945 C.ar    
  16 C16           -1.2293    -2.8048    -1.0977 C.ar    
  17 C17            3.7464    -0.6108    -0.0365 C.ar    
  18 C18            4.5911    -0.4711    -1.1402 C.ar    
  19 C19            5.8095    -1.0992    -1.1552 C.ar    
  20 C20            6.2067    -1.8797    -0.0654 C.ar    
  21 C21            5.3609    -2.0191     1.0390 C.ar    
  22 C22            4.1449    -1.3862     1.0550 C.ar    
  23 C23            7.5168    -2.5559    -0.0811 C.2     
  24 N24            7.8842    -3.2785     0.9281 N.2     
  25 O25            9.1424    -3.9279     0.9131 O.3     
  26 N26            9.4236    -4.7085     2.1181 N.3     
  27 O27            1.3074    -2.0292    -0.0209 O.3     
  28 Cl28          -4.0154    -0.0607     0.0400 Cl      
  29 H29            1.1321     3.0602     0.0073 H       
  30 H30           -2.4976    -2.0528     1.9573 H       
  31 H31           -2.9133    -4.4773     1.9381 H       
  32 H32           -2.2521    -5.8278    -0.0090 H       
  33 H33           -1.1725    -4.7630    -1.9463 H       
  34 H34           -0.7601    -2.3378    -1.9510 H       
  35 H35            4.2840     0.1316    -1.9822 H       
  36 H36            6.4623    -0.9913    -2.0088 H       
  37 H37            5.6671    -2.6220     1.8812 H       
  38 H38            3.4933    -1.4902     1.9100 H       
  39 H39            8.1698    -2.4483    -0.9345 H       
  40 H40           10.3287    -5.1505     2.0596 H       
  41 H41            9.3543    -4.1345     2.9451 H       
  42 H42            2.2045    -2.3899    -0.0314 H       
@<TRIPOS>BOND
   1    1    2 2
   2    1    6 1
   3    1    9 1
   4    2    3 1
   5    2    7 1
   6    3    4 2
   7    3   27 1
   8    4    5 1
   9    4   17 1
  10    5    6 am
  11    5   10 2
  12    6   29 1
  13    7    8 2
  14    7   11 1
  15    8    9 1
  16    8   28 1
  17   11   12 ar
  18   11   16 ar
  19   12   13 ar
  20   12   30 1
  21   13   14 ar
  22   13   31 1
  23   14   15 ar
  24   14   32 1
  25   15   16 ar
  26   15   33 1
  27   16   34 1
  28   17   18 ar
  29   17   22 ar
  30   18   19 ar
  31   18   35 1
  32   19   20 ar
  33   19   36 1
  34   20   21 ar
  35   20   23 1
  36   21   22 ar
  37   21   37 1
  38   22   38 1
  39   23   24 2
  40   23   39 1
  41   24   25 1
  42   25   26 1
  43   26   40 1
  44   26   41 1
  45   27   42 1

#	End of record

