#	Name: ASD02500112
#	Creating user name:	WinNT
#	Creation time:	15. 06. 2019 20:22

#	Modifying user name:	WinNT
#	Modification time:	15. 06. 2019 20:22

#	Program:	/corina/corina34_cracker 3.40 0067  02.08.2006

@<TRIPOS>MOLECULE
ASD02500112
  62   66    0    0    0
SMALL
NO_CHARGES


@<TRIPOS>ATOM
   1 C1             1.6897     1.0425    -0.5357 C.ar    
   2 C2             1.4390    -0.1701     0.1085 C.ar    
   3 C3             2.4192    -0.7346     0.9263 C.ar    
   4 C4             3.6284    -0.0916     1.0929 C.ar    
   5 C5             3.8703     1.1103     0.4517 C.ar    
   6 C6             2.9031     1.6750    -0.3607 C.ar    
   7 S7             5.4172     1.9252     0.6703 S.o2    
   8 N8             6.4350     1.3703    -0.5124 N.am    
   9 C9             6.1129     1.5616    -1.8554 C.ar    
  10 C10            6.4341     0.5732    -2.8122 C.ar    
  11 C11            5.4738     2.7135    -2.2587 C.ar    
  12 C12            6.0948     0.7938    -4.1690 C.ar    
  13 C13            5.4487     1.9840    -4.5412 C.ar    
  14 C14            5.1463     2.9167    -3.5963 C.ar    
  15 N15            7.0493    -0.5571    -2.4550 N.ar    
  16 C16            7.3504    -1.4779    -3.3381 C.ar    
  17 C17            7.0452    -1.3250    -4.6889 C.ar    
  18 C18            6.4158    -0.1927    -5.1211 C.ar    
  19 O19            5.1896     3.2998     0.3914 O.2     
  20 O20            5.9451     1.4596     1.9048 O.2     
  21 C21            0.1407    -0.8533    -0.0741 C.2     
  22 O22           -0.8946    -0.2203    -0.0027 O.2     
  23 N23            0.1050    -2.1780    -0.3197 N.am    
  24 C24           -1.1669    -2.8586    -0.6068 C.3     
  25 C25           -1.0031    -3.6738    -1.8940 C.3     
  26 N26            0.1604    -4.5610    -1.7631 N.3     
  27 C27            1.4021    -3.7919    -1.6067 C.3     
  28 C28            1.3376    -2.9804    -0.3138 C.3     
  29 C29            0.2472    -5.4380    -2.8505 C.ar    
  30 C30            1.3046    -5.3374    -3.7422 C.ar    
  31 C31            1.3884    -6.2052    -4.8153 C.ar    
  32 C32            0.4204    -7.1739    -5.0022 C.ar    
  33 C33           -0.6371    -7.2802    -4.1169 C.ar    
  34 C34           -0.7255    -6.4184    -3.0367 C.ar    
  35 O35           -1.7646    -6.5221    -2.1652 O.3     
  36 C36           -2.7296    -7.5435    -2.4247 C.3     
  37 H37            0.9371     1.4822    -1.1733 H       
  38 H38            2.2313    -1.6724     1.4279 H       
  39 H39            4.3876    -0.5273     1.7254 H       
  40 H40            3.0983     2.6135    -0.8583 H       
  41 H41            7.2551     0.9123    -0.2708 H       
  42 H42            5.2235     3.4683    -1.5279 H       
  43 H43            5.1877     2.1571    -5.5748 H       
  44 H44            4.6494     3.8296    -3.8897 H       
  45 H45            7.8484    -2.3784    -3.0102 H       
  46 H46            7.3064    -2.1008    -5.3934 H       
  47 H47            6.1717    -0.0573    -6.1644 H       
  48 H48           -1.4205    -3.5241     0.2183 H       
  49 H49           -1.9562    -2.1187    -0.7400 H       
  50 H50           -1.8990    -4.2713    -2.0626 H       
  51 H51           -0.8523    -2.9980    -2.7358 H       
  52 H52            2.2505    -4.4750    -1.5669 H       
  53 H53            1.5194    -3.1145    -2.4525 H       
  54 H54            2.2044    -2.3224    -0.2508 H       
  55 H55            1.3239    -3.6554     0.5419 H       
  56 H56            2.0621    -4.5811    -3.5986 H       
  57 H57            2.2120    -6.1257    -5.5093 H       
  58 H58            0.4896    -7.8494    -5.8420 H       
  59 H59           -1.3920    -8.0380    -4.2661 H       
  60 H60           -3.1826    -7.3756    -3.4018 H       
  61 H61           -2.2399    -8.5173    -2.4138 H       
  62 H62           -3.5024    -7.5169    -1.6566 H       
@<TRIPOS>BOND
   1    1    2 ar
   2    1    6 ar
   3    1   37 1
   4    2    3 ar
   5    2   21 1
   6    3    4 ar
   7    3   38 1
   8    4    5 ar
   9    4   39 1
  10    5    6 ar
  11    5    7 1
  12    6   40 1
  13    7    8 am
  14    7   19 2
  15    7   20 2
  16    8    9 1
  17    8   41 1
  18    9   10 ar
  19    9   11 ar
  20   10   12 ar
  21   10   15 ar
  22   11   14 ar
  23   11   42 1
  24   12   13 ar
  25   12   18 ar
  26   13   14 ar
  27   13   43 1
  28   14   44 1
  29   15   16 ar
  30   16   17 ar
  31   16   45 1
  32   17   18 ar
  33   17   46 1
  34   18   47 1
  35   21   22 2
  36   21   23 am
  37   23   24 1
  38   23   28 1
  39   24   25 1
  40   24   48 1
  41   24   49 1
  42   25   26 1
  43   25   50 1
  44   25   51 1
  45   26   27 1
  46   26   29 1
  47   27   28 1
  48   27   52 1
  49   27   53 1
  50   28   54 1
  51   28   55 1
  52   29   30 ar
  53   29   34 ar
  54   30   31 ar
  55   30   56 1
  56   31   32 ar
  57   31   57 1
  58   32   33 ar
  59   32   58 1
  60   33   34 ar
  61   33   59 1
  62   34   35 1
  63   35   36 1
  64   36   60 1
  65   36   61 1
  66   36   62 1

#	End of record

