#	Name: ASD01411131
#	Creating user name:	WinNT
#	Creation time:	15. 06. 2019 19:19

#	Modifying user name:	WinNT
#	Modification time:	15. 06. 2019 19:19

#	Program:	/corina/corina34_cracker 3.40 0067  02.08.2006

@<TRIPOS>MOLECULE
ASD01411131
  66   68    0    0    0
SMALL
NO_CHARGES


@<TRIPOS>ATOM
   1 C1            -0.0317     1.4599    -0.0990 C.2     
   2 C2             0.0280     0.0927    -0.2218 C.2     
   3 C3             1.2870    -0.4130    -0.3707 C.2     
   4 S4             2.4626     0.8939    -0.3563 S.3     
   5 C5             1.1904     2.0891    -0.1470 C.2     
   6 C6             1.6034    -1.8020    -0.5160 C.1     
   7 C7             1.8627    -2.9408    -0.6352 C.1     
   8 C8             2.1879    -4.3686    -0.7847 C.3     
   9 C9             3.7023    -4.5347    -0.9259 C.3     
  10 C10            1.7037    -5.1337     0.4486 C.3     
  11 C11            1.4958    -4.9215    -2.0321 C.3     
  12 C12            1.3927     3.4847    -0.0441 C.2     
  13 O13            0.4401     4.2288     0.0993 O.2     
  14 O14            2.6423     3.9919    -0.1048 O.3     
  15 N15           -1.2331     2.1530     0.0556 N.am    
  16 C16           -1.7216     2.3880     1.2895 C.2     
  17 C17           -2.9490     3.2449     1.4635 C.3     
  18 O18           -1.1733     1.9098     2.2600 O.2     
  19 C19           -4.1837     4.7451     3.0343 C.3     
  20 C20           -2.9375     3.8751     2.8576 C.3     
  21 C21           -4.2012     2.3803     1.3049 C.3     
  22 C22           -5.4474     3.2503     1.4815 C.3     
  23 C23           -5.4360     3.8805     2.8757 C.3     
  24 C24           -6.6821     4.7505     3.0523 C.3     
  25 C25           -1.9634     2.6251    -1.1234 C.3     
  26 O26           -2.6470     0.4268    -1.5108 O.2     
  27 C27           -1.6596     2.6585    -4.0883 C.3     
  28 N28           -2.1468     1.5015    -3.3479 N.am    
  29 C29           -2.2688     1.4602    -2.0206 C.2     
  30 C30           -1.1094     3.6504    -1.8736 C.3     
  31 C31           -1.7626     3.9226    -3.2340 C.3     
  32 C32           -2.5255     0.3087    -4.1096 C.3     
  33 H33           -0.8522    -0.5328    -0.2018 H       
  34 H34            4.1954    -4.1408    -0.0371 H       
  35 H35            3.9431    -5.5920    -1.0365 H       
  36 H36            4.0473    -3.9896    -1.8045 H       
  37 H37            0.6248    -5.0154     0.5492 H       
  38 H38            1.9445    -6.1910     0.3379 H       
  39 H39            2.1968    -4.7399     1.3373 H       
  40 H40            1.8407    -4.3763    -2.9108 H       
  41 H41            1.7366    -5.9787    -2.1428 H       
  42 H42            0.4169    -4.8031    -1.9316 H       
  43 H43            2.6802     4.9549    -0.0253 H       
  44 H44           -2.9527     4.0317     0.7091 H       
  45 H45           -4.1755     5.1941     4.0275 H       
  46 H46           -4.1874     5.5318     2.2799 H       
  47 H47           -2.9338     3.0883     3.6120 H       
  48 H48           -2.0454     4.4911     2.9706 H       
  49 H49           -4.2094     1.9313     0.3117 H       
  50 H50           -4.1975     1.5935     2.0593 H       
  51 H51           -5.4511     4.0370     0.7272 H       
  52 H52           -6.3395     2.6343     1.3685 H       
  53 H53           -5.4322     3.0937     3.6300 H       
  54 H54           -6.6858     5.5372     2.2979 H       
  55 H55           -7.5742     4.1345     2.9393 H       
  56 H56           -6.6740     5.1994     4.0455 H       
  57 H57           -2.8964     3.0923    -0.8083 H       
  58 H58           -0.6185     2.4956    -4.3671 H       
  59 H59           -2.2557     2.7852    -4.9920 H       
  60 H60           -1.0580     4.5755    -1.2995 H       
  61 H61           -0.1051     3.2535    -2.0215 H       
  62 H62           -1.2442     4.7429    -3.7306 H       
  63 H63           -2.8113     4.1829    -3.0909 H       
  64 H64           -1.6581    -0.3421    -4.2206 H       
  65 H65           -3.3148    -0.2250    -3.5802 H       
  66 H66           -2.8853     0.6057    -5.0947 H       
@<TRIPOS>BOND
   1    1    2 1
   2    1    5 2
   3    1   15 1
   4    2    3 2
   5    2   33 1
   6    3    4 1
   7    3    6 1
   8    4    5 1
   9    5   12 1
  10    6    7 3
  11    7    8 1
  12    8    9 1
  13    8   10 1
  14    8   11 1
  15    9   34 1
  16    9   35 1
  17    9   36 1
  18   10   37 1
  19   10   38 1
  20   10   39 1
  21   11   40 1
  22   11   41 1
  23   11   42 1
  24   12   13 2
  25   12   14 1
  26   14   43 1
  27   15   16 am
  28   15   25 1
  29   16   18 2
  30   16   17 1
  31   17   21 1
  32   17   20 1
  33   17   44 1
  34   19   20 1
  35   19   23 1
  36   19   45 1
  37   19   46 1
  38   20   47 1
  39   20   48 1
  40   21   22 1
  41   21   49 1
  42   21   50 1
  43   22   23 1
  44   22   51 1
  45   22   52 1
  46   23   24 1
  47   23   53 1
  48   24   54 1
  49   24   55 1
  50   24   56 1
  51   25   30 1
  52   25   29 1
  53   25   57 1
  54   26   29 2
  55   27   28 1
  56   27   31 1
  57   27   58 1
  58   27   59 1
  59   28   29 am
  60   28   32 1
  61   30   31 1
  62   30   60 1
  63   30   61 1
  64   31   62 1
  65   31   63 1
  66   32   64 1
  67   32   65 1
  68   32   66 1

#	End of record

