#	Name: ASD00110014
#	Creating user name:	WinNT
#	Creation time:	15. 06. 2019 18:30

#	Modifying user name:	WinNT
#	Modification time:	15. 06. 2019 18:30

#	Program:	/corina/corina34_cracker 3.40 0067  02.08.2006

@<TRIPOS>MOLECULE
ASD00110014
  42   43    0    0    0
SMALL
NO_CHARGES


@<TRIPOS>ATOM
   1 C1             0.0203     1.3757    -0.3023 C.ar    
   2 C2             0.1122     0.0186    -0.5337 C.ar    
   3 C3             1.2817    -0.6589    -0.2388 C.ar    
   4 C4             2.3663     0.0185     0.2901 C.ar    
   5 C5             2.2877     1.3752     0.5262 C.ar    
   6 C6             1.1106     2.0649     0.2305 C.ar    
   7 C7             1.0194     3.5192     0.4806 C.2     
   8 N8             2.0713     4.3169     0.2092 N.am    
   9 O9            -0.0043     3.9954     0.9309 O.2     
  10 C10            1.9809     5.7580     0.4571 C.3     
  11 C11            3.3841     6.3265     0.6779 C.3     
  12 O12            4.1453     6.1967    -0.5246 O.3     
  13 C13            1.3369     6.4436    -0.7496 C.3     
  14 O14            2.1919     6.3084    -1.8867 O.3     
  15 C15           -1.2524     2.1132    -0.6300 C.3     
  16 N16           -4.0116     2.0426    -1.4788 N.3     
  17 C17           -2.9714     2.5346    -2.3911 C.3     
  18 C18           -1.6469     1.8326    -2.0826 C.3     
  19 C19           -2.3738     1.6352     0.2966 C.3     
  20 C20           -3.6772     2.3429    -0.0808 C.3     
  21 H21           -0.7310    -0.5161    -0.9457 H       
  22 H22            1.3485    -1.7212    -0.4219 H       
  23 H23            3.2763    -0.5164     0.5188 H       
  24 H24            3.1347     1.9026     0.9394 H       
  25 H25            2.8882     3.9369    -0.1501 H       
  26 H26            1.3728     5.9367     1.3438 H       
  27 H27            3.3109     7.3795     0.9496 H       
  28 H28            3.8764     5.7775     1.4806 H       
  29 H29            5.0477     6.5375    -0.4575 H       
  30 H30            0.3745     5.9778    -0.9613 H       
  31 H31            1.1884     7.5009    -0.5303 H       
  32 H32            1.8459     6.7206    -2.6901 H       
  33 H33           -1.0985     3.1836    -0.4936 H       
  34 H34           -4.9150     2.4196    -1.7236 H       
  35 H35           -3.2623     2.3250    -3.4205 H       
  36 H36           -2.8517     3.6099    -2.2594 H       
  37 H37           -0.8714     2.2093    -2.7496 H       
  38 H38           -1.7620     0.7584    -2.2275 H       
  39 H39           -2.5003     0.5580     0.1892 H       
  40 H40           -2.1177     1.8710     1.3295 H       
  41 H41           -3.5543     3.4192     0.0400 H       
  42 H42           -4.4808     1.9942     0.5678 H       
@<TRIPOS>BOND
   1    1    2 ar
   2    1    6 ar
   3    1   15 1
   4    2    3 ar
   5    2   21 1
   6    3    4 ar
   7    3   22 1
   8    4    5 ar
   9    4   23 1
  10    5    6 ar
  11    5   24 1
  12    6    7 1
  13    7    8 am
  14    7    9 2
  15    8   10 1
  16    8   25 1
  17   10   11 1
  18   10   13 1
  19   10   26 1
  20   11   12 1
  21   11   27 1
  22   11   28 1
  23   12   29 1
  24   13   14 1
  25   13   30 1
  26   13   31 1
  27   14   32 1
  28   15   19 1
  29   15   18 1
  30   15   33 1
  31   16   17 1
  32   16   20 1
  33   16   34 1
  34   17   18 1
  35   17   35 1
  36   17   36 1
  37   18   37 1
  38   18   38 1
  39   19   20 1
  40   19   39 1
  41   19   40 1
  42   20   41 1
  43   20   42 1

#	End of record

