#	Name: ASD01918062
#	Creating user name:	WinNT
#	Creation time:	15. 06. 2019 20:10

#	Modifying user name:	WinNT
#	Modification time:	15. 06. 2019 20:10

#	Program:	/corina/corina34_cracker 3.40 0067  02.08.2006

@<TRIPOS>MOLECULE
ASD01918062
  44   48    0    0    0
SMALL
NO_CHARGES


@<TRIPOS>ATOM
   1 C1            -0.0183     1.5017     0.0103 C.3     
   2 C2             0.0021    -0.0041     0.0020 C.2     
   3 C3             1.0848    -0.7490    -0.3315 C.2     
   4 C4             2.4147    -0.1760    -0.7428 C.3     
   5 C5             2.2106     1.2988    -1.1135 C.3     
   6 C6             1.4312     2.0041    -0.0008 C.3     
   7 N7             0.7122    -2.0350    -0.2154 N.pl3   
   8 N8            -0.5220    -2.0599     0.1629 N.2     
   9 N9            -0.9714    -0.8584     0.3003 N.2     
  10 C10            1.5578    -3.2033    -0.4730 C.3     
  11 C11            1.4450     3.4914    -0.2434 C.2     
  12 N12            1.9343     4.4056     0.5569 N.2     
  13 C13            1.7261     5.5858    -0.0695 C.2     
  14 N14            1.1284     5.3214    -1.2023 N.2     
  15 O15            0.9655     4.1250    -1.3182 O.3     
  16 C16            2.1048     6.9292     0.4341 C.ar    
  17 C17            1.8254     8.0642    -0.3247 C.ar    
  18 C18            2.1792     9.3113     0.1472 C.ar    
  19 C19            2.8120     9.4362     1.3736 C.ar    
  20 C20            3.0922     8.3103     2.1311 C.ar    
  21 C21            2.7358     7.0599     1.6697 C.ar    
  22 F22            3.1573    10.6594     1.8319 F       
  23 C23            1.6559    -4.0863     0.7861 C.3     
  24 O24            1.0625    -5.3556     0.4652 O.3     
  25 C25            1.1957    -5.5346    -0.9612 C.3     
  26 C26            0.9027    -4.1235    -1.5316 C.3     
  27 H27           -0.5404     1.8668    -0.8742 H       
  28 H28           -0.5234     1.8573     0.9084 H       
  29 H29            3.1195    -0.2525     0.0852 H       
  30 H30            2.7990    -0.7216    -1.6046 H       
  31 H31            3.1809     1.7795    -1.2381 H       
  32 H32            1.6506     1.3646    -2.0463 H       
  33 H33            1.8973     1.7891     0.9607 H       
  34 H34            2.5501    -2.8907    -0.7980 H       
  35 H35            1.3328     7.9676    -1.2810 H       
  36 H36            1.9630    10.1914    -0.4402 H       
  37 H37            3.5862     8.4120     3.0861 H       
  38 H38            2.9502     6.1832     2.2629 H       
  39 H39            2.7015    -4.2249     1.0611 H       
  40 H40            1.1128    -3.6206     1.6086 H       
  41 H41            2.2079    -5.8489    -1.2157 H       
  42 H42            0.4652    -6.2560    -1.3274 H       
  43 H43           -0.1707    -3.9438    -1.5925 H       
  44 H44            1.3736    -3.9923    -2.5059 H       
@<TRIPOS>BOND
   1    1    2 1
   2    1    6 1
   3    1   27 1
   4    1   28 1
   5    2    9 1
   6    2    3 2
   7    3    4 1
   8    3    7 1
   9    4    5 1
  10    4   29 1
  11    4   30 1
  12    5    6 1
  13    5   31 1
  14    5   32 1
  15    6   11 1
  16    6   33 1
  17    7    8 1
  18    7   10 1
  19    8    9 2
  20   10   23 1
  21   10   26 1
  22   10   34 1
  23   11   12 2
  24   11   15 1
  25   12   13 1
  26   13   14 2
  27   13   16 1
  28   14   15 1
  29   16   17 ar
  30   16   21 ar
  31   17   18 ar
  32   17   35 1
  33   18   19 ar
  34   18   36 1
  35   19   20 ar
  36   19   22 1
  37   20   21 ar
  38   20   37 1
  39   21   38 1
  40   23   24 1
  41   23   39 1
  42   23   40 1
  43   24   25 1
  44   25   26 1
  45   25   41 1
  46   25   42 1
  47   26   43 1
  48   26   44 1

#	End of record

