#	Name: ASD01418033
#	Creating user name:	WinNT
#	Creation time:	15. 06. 2019 19:20

#	Modifying user name:	WinNT
#	Modification time:	15. 06. 2019 19:20

#	Program:	/corina/corina34_cracker 3.40 0067  02.08.2006

@<TRIPOS>MOLECULE
ASD01418033
  68   72    0    0    0
SMALL
NO_CHARGES


@<TRIPOS>ATOM
   1 C1            -0.0178     1.4638     0.0101 C.3     
   2 N2             0.0021    -0.0041     0.0020 N.pl3   
   3 C3             0.6022    -0.7896     0.9590 C.2     
   4 C4             1.2678    -0.2894     2.1780 C.ar    
   5 C5             2.0023     0.9079     2.1876 C.ar    
   6 C6             2.2596     1.6928     0.9891 C.2     
   7 C7             1.4032     1.9590    -0.0008 C.2     
   8 C8             1.1468    -1.0380     3.3526 C.ar    
   9 C9             1.7118    -0.5866     4.5272 C.ar    
  10 C10            2.4004     0.6182     4.5515 C.ar    
  11 C11            2.5467     1.3599     3.4035 C.ar    
  12 C12           -0.5482    -0.8182    -0.9503 C.ar    
  13 C13           -0.2574    -2.1591    -0.5811 C.ar    
  14 C14            0.4684    -2.1040     0.6174 C.2     
  15 C15           -1.2699    -0.5363    -2.1021 C.ar    
  16 C16           -1.6873    -1.6308    -2.8701 C.ar    
  17 C17           -1.3934    -2.9482    -2.4995 C.ar    
  18 C18           -0.6845    -3.2422    -1.3670 C.ar    
  19 C19            1.0039    -3.2828     1.3886 C.3     
  20 C20           -0.1562    -4.1894     1.8048 C.3     
  21 C21            1.9756    -4.0700     0.5072 C.3     
  22 C22            2.5192    -5.2668     1.2902 C.3     
  23 C23            1.3592    -6.1735     1.7063 C.3     
  24 C24            0.3874    -5.3862     2.5877 C.3     
  25 C25           -2.4584    -1.3884    -4.1032 C.2     
  26 O26           -2.7232    -0.2515    -4.4405 O.2     
  27 O27           -2.8694    -2.4277    -4.8562 O.3     
  28 C28            1.8489     2.7349    -1.1009 C.2     
  29 O29            1.0033     3.0178    -2.1136 O.3     
  30 O30            2.9935     3.1456    -1.1316 O.2     
  31 C31           -3.6239    -2.1144    -6.0565 C.3     
  32 C32           -2.7700    -1.2473    -6.9838 C.3     
  33 C33           -4.0007    -3.4116    -6.7751 C.3     
  34 C34           -4.8959    -1.3543    -5.6756 C.3     
  35 Cl35           1.5607    -1.5273     5.9784 Cl      
  36 C36            1.5194     3.8042    -3.1894 C.3     
  37 H37           -0.5403     1.8286    -0.8742 H       
  38 H38           -0.5233     1.8190     0.9081 H       
  39 H39            3.2525     2.1058     0.8893 H       
  40 H40            0.6080    -1.9739     3.3404 H       
  41 H41            2.8243     0.9752     5.4785 H       
  42 H42            3.0833     2.2966     3.4352 H       
  43 H43           -1.4988     0.4785    -2.3921 H       
  44 H44           -1.7373    -3.7575    -3.1266 H       
  45 H45           -0.4625    -4.2621    -1.0897 H       
  46 H46            1.5253    -2.9287     2.2779 H       
  47 H47           -0.8485    -3.6286     2.4327 H       
  48 H48           -0.6776    -4.5436     0.9155 H       
  49 H49            1.4542    -4.4242    -0.3820 H       
  50 H50            2.8020    -3.4241     0.2108 H       
  51 H51            3.2115    -5.8277     0.6622 H       
  52 H52            3.0406    -4.9127     2.1795 H       
  53 H53            0.8377    -6.5276     0.8171 H       
  54 H54            1.7464    -7.0261     2.2641 H       
  55 H55            0.9089    -5.0321     3.4770 H       
  56 H56           -0.4390    -6.0322     2.8842 H       
  57 H57           -1.8638    -1.7888    -7.2552 H       
  58 H58           -3.3364    -1.0121    -7.8849 H       
  59 H59           -2.5015    -0.3232    -6.4719 H       
  60 H60           -4.6091    -4.0293    -6.1145 H       
  61 H61           -4.5671    -3.1764    -7.6762 H       
  62 H62           -3.0945    -3.9531    -7.0465 H       
  63 H63           -4.6274    -0.4302    -5.1637 H       
  64 H64           -5.4623    -1.1192    -6.5767 H       
  65 H65           -5.5042    -1.9721    -5.0150 H       
  66 H66            1.8517     4.7693    -2.8070 H       
  67 H67            2.3616     3.2853    -3.6472 H       
  68 H68            0.7387     3.9578    -3.9344 H       
@<TRIPOS>BOND
   1    1    2 1
   2    1    7 1
   3    1   37 1
   4    1   38 1
   5    2    3 1
   6    2   12 1
   7    3    4 1
   8    3   14 2
   9    4    5 ar
  10    4    8 ar
  11    5    6 1
  12    5   11 ar
  13    6    7 2
  14    6   39 1
  15    7   28 1
  16    8    9 ar
  17    8   40 1
  18    9   10 ar
  19    9   35 1
  20   10   11 ar
  21   10   41 1
  22   11   42 1
  23   12   13 ar
  24   12   15 ar
  25   13   14 1
  26   13   18 ar
  27   14   19 1
  28   15   16 ar
  29   15   43 1
  30   16   17 ar
  31   16   25 1
  32   17   18 ar
  33   17   44 1
  34   18   45 1
  35   19   20 1
  36   19   21 1
  37   19   46 1
  38   20   24 1
  39   20   47 1
  40   20   48 1
  41   21   22 1
  42   21   49 1
  43   21   50 1
  44   22   23 1
  45   22   51 1
  46   22   52 1
  47   23   24 1
  48   23   53 1
  49   23   54 1
  50   24   55 1
  51   24   56 1
  52   25   26 2
  53   25   27 1
  54   27   31 1
  55   28   29 1
  56   28   30 2
  57   29   36 1
  58   31   32 1
  59   31   33 1
  60   31   34 1
  61   32   57 1
  62   32   58 1
  63   32   59 1
  64   33   60 1
  65   33   61 1
  66   33   62 1
  67   34   63 1
  68   34   64 1
  69   34   65 1
  70   36   66 1
  71   36   67 1
  72   36   68 1

#	End of record

