#	Name: ASD01680123
#	Creating user name:	WinNT
#	Creation time:	15. 06. 2019 19:22

#	Modifying user name:	WinNT
#	Modification time:	15. 06. 2019 19:22

#	Program:	/corina/corina34_cracker 3.40 0067  02.08.2006

@<TRIPOS>MOLECULE
ASD01680123
 108  114    0    0    0
SMALL
NO_CHARGES


@<TRIPOS>ATOM
   1 C1             2.1686    -6.8020    -1.2760 C.2     
   2 C2             1.2176    -5.9462    -0.5366 C.ar    
   3 C3             1.6476    -4.7201     0.0163 C.ar    
   4 C4             0.7396    -3.9188     0.7130 C.ar    
   5 C5            -0.5690    -4.3249     0.8589 C.ar    
   6 C6            -0.9958    -5.5331     0.3151 C.ar    
   7 C7            -0.1058    -6.3408    -0.3864 C.ar    
   8 O8             3.3238    -6.4514    -1.4096 O.2     
   9 O9             1.7558    -7.9737    -1.7971 O.3     
  10 C10            3.0455    -4.2887    -0.1403 C.2     
  11 C11            4.0839    -4.8812     0.6146 C.2     
  12 C12            3.7959    -5.9039     1.5387 C.2     
  13 C13            4.7965    -6.4680     2.2603 C.2     
  14 C14            6.1270    -6.0337     2.0885 C.2     
  15 C15            6.4267    -5.0181     1.1732 C.2     
  16 C16            5.4153    -4.4370     0.4334 C.2     
  17 O17            5.7089    -3.4577    -0.4470 O.3     
  18 C18            4.7656    -2.8522    -1.1964 C.ar    
  19 C19            5.1167    -1.8491    -2.0884 C.ar    
  20 C20            4.1400    -1.2332    -2.8540 C.ar    
  21 C21            2.8020    -1.6115    -2.7373 C.ar    
  22 C22            2.4373    -2.5951    -1.8663 C.ar    
  23 C23            3.4126    -3.2334    -1.0888 C.ar    
  24 O24            7.0255    -6.5478     2.7442 O.2     
  25 O25            4.4877    -0.2528    -3.7249 O.3     
  26 N26           -2.3214    -5.9330     0.4692 N.am    
  27 N27           -3.8816    -7.5555     1.0877 N.am    
  28 C28           -4.3424    -8.9156     1.4027 C.3     
  29 C29           -5.8681    -8.8429     1.6230 C.3     
  30 C30           -6.0974    -7.3497     1.9766 C.3     
  31 C31           -5.0466    -6.6522     1.0770 C.3     
  32 C32           -2.6047    -7.1934     0.8533 C.2     
  33 S33           -1.3427    -8.3345     1.0434 S.2     
  34 C34           -4.0294    -9.8544     0.2358 C.3     
  35 N35           -4.3938   -11.2256     0.6009 N.pl3   
  36 C36           -4.1090   -12.2746    -0.2655 C.ar    
  37 C37           -3.4775   -12.0153    -1.4779 C.ar    
  38 C38           -3.2001   -13.0684    -2.3304 C.ar    
  39 C39           -3.5647   -14.3506    -1.9405 C.ar    
  40 C40           -4.1885   -14.5353    -0.7232 C.ar    
  41 N41           -4.4361   -13.5121     0.0727 N.ar    
  42 O42           -7.4216    -6.9388     1.6304 O.3     
  43 C43           -7.9457    -5.9036     2.4645 C.3     
  44 C44           -9.3391    -5.5508     2.0117 C.2     
  45 N45          -10.0347    -4.5928     2.6559 N.am    
  46 O46           -9.8345    -6.1289     1.0677 O.2     
  47 C47          -11.3892    -4.2499     2.2157 C.3     
  48 C48          -11.9504    -3.1415     3.1088 C.3     
  49 N49          -11.0301    -2.0017     3.1090 N.am    
  50 S50          -10.8317    -1.0979     4.4824 S.o2    
  51 O51           -9.8635    -0.1049     4.1729 O.2     
  52 O52          -12.1370    -0.7909     4.9527 O.2     
  53 C53          -10.0996    -2.1458     5.6951 C.ar    
  54 C54          -10.8925    -2.7643     6.6436 C.ar    
  55 C55          -10.3181    -3.5864     7.5950 C.ar    
  56 C56           -8.9509    -3.7903     7.5976 C.ar    
  57 C57           -8.1581    -3.1725     6.6486 C.ar    
  58 C58           -8.7330    -2.3539     5.6945 C.ar    
  59 C59           -7.8693    -1.6845     4.6567 C.3     
  60 C60           -8.3246    -4.6857     8.6355 C.3     
  61 C61          -12.3830    -2.5420     6.6407 C.3     
  62 C62          -13.2926    -2.7033     2.5821 C.2     
  63 O63          -13.4630    -1.5566     2.2419 O.2     
  64 O64          -14.2989    -3.5870     2.4910 O.3     
  65 H65            1.0638    -2.9803     1.1380 H       
  66 H66           -1.2674    -3.7025     1.3986 H       
  67 H67           -0.4428    -7.2752    -0.8104 H       
  68 H68            2.4140    -8.4990    -2.2724 H       
  69 H69            2.7781    -6.2389     1.6733 H       
  70 H70            4.5734    -7.2520     2.9688 H       
  71 H71            7.4474    -4.6889     1.0457 H       
  72 H72            6.1495    -1.5487    -2.1854 H       
  73 H73            2.0511    -1.1223    -3.3399 H       
  74 H74            1.4005    -2.8844    -1.7792 H       
  75 H75            4.7044    -0.5728    -4.6113 H       
  76 H76           -3.0404    -5.3043     0.3000 H       
  77 H77           -3.8535    -9.2720     2.3094 H       
  78 H78           -6.4026    -9.1099     0.7114 H       
  79 H79           -6.1694    -9.4857     2.4502 H       
  80 H80           -5.8950    -7.1623     3.0311 H       
  81 H81           -4.7773    -5.6808     1.4916 H       
  82 H82           -5.4302    -6.5397     0.0629 H       
  83 H83           -4.6004    -9.5478    -0.6405 H       
  84 H84           -2.9641    -9.8097     0.0093 H       
  85 H85           -4.8340   -11.4015     1.4473 H       
  86 H86           -3.2080   -11.0055    -1.7498 H       
  87 H87           -2.7111   -12.8976    -3.2781 H       
  88 H88           -3.3625   -15.1944    -2.5834 H       
  89 H89           -4.4738   -15.5307    -0.4161 H       
  90 H90           -7.9761    -6.2499     3.4976 H       
  91 H91           -7.3072    -5.0229     2.3951 H       
  92 H92           -9.6384    -4.1305     3.4109 H       
  93 H93          -11.3588    -3.9036     1.1826 H       
  94 H94          -12.0277    -5.1306     2.2850 H       
  95 H95          -12.0640    -3.5170     4.1257 H       
  96 H96          -10.5369    -1.7763     2.3047 H       
  97 H97          -10.9375    -4.0690     8.3365 H       
  98 H98           -7.0899    -3.3315     6.6509 H       
  99 H99           -7.6072    -0.6817     4.9941 H       
 100 H100          -6.9603    -2.2676     4.5095 H       
 101 H101          -8.4159    -1.6199     3.7159 H       
 102 H102          -8.2928    -5.7089     8.2611 H       
 103 H103          -7.3111    -4.3442     8.8461 H       
 104 H104          -8.9169    -4.6516     9.5499 H       
 105 H105         -12.8258    -3.0587     5.7892 H       
 106 H106         -12.8103    -2.9319     7.5645 H       
 107 H107         -12.5910    -1.4746     6.5663 H       
 108 H108         -15.1412    -3.2592     2.1473 H       
@<TRIPOS>BOND
   1    1    2 1
   2    1    8 2
   3    1    9 1
   4    2    3 ar
   5    2    7 ar
   6    3    4 ar
   7    3   10 1
   8    4    5 ar
   9    4   65 1
  10    5    6 ar
  11    5   66 1
  12    6    7 ar
  13    6   26 1
  14    7   67 1
  15    9   68 1
  16   10   11 2
  17   10   23 1
  18   11   12 1
  19   11   16 1
  20   12   13 2
  21   12   69 1
  22   13   14 1
  23   13   70 1
  24   14   15 1
  25   14   24 2
  26   15   16 2
  27   15   71 1
  28   16   17 1
  29   17   18 1
  30   18   19 ar
  31   18   23 ar
  32   19   20 ar
  33   19   72 1
  34   20   21 ar
  35   20   25 1
  36   21   22 ar
  37   21   73 1
  38   22   23 ar
  39   22   74 1
  40   25   75 1
  41   26   32 am
  42   26   76 1
  43   27   28 1
  44   27   31 1
  45   27   32 am
  46   28   29 1
  47   28   34 1
  48   28   77 1
  49   29   30 1
  50   29   78 1
  51   29   79 1
  52   30   31 1
  53   30   42 1
  54   30   80 1
  55   31   81 1
  56   31   82 1
  57   32   33 2
  58   34   35 1
  59   34   83 1
  60   34   84 1
  61   35   36 1
  62   35   85 1
  63   36   37 ar
  64   36   41 ar
  65   37   38 ar
  66   37   86 1
  67   38   39 ar
  68   38   87 1
  69   39   40 ar
  70   39   88 1
  71   40   41 ar
  72   40   89 1
  73   42   43 1
  74   43   44 1
  75   43   90 1
  76   43   91 1
  77   44   45 am
  78   44   46 2
  79   45   47 1
  80   45   92 1
  81   47   48 1
  82   47   93 1
  83   47   94 1
  84   48   49 1
  85   48   62 1
  86   48   95 1
  87   49   50 am
  88   49   96 1
  89   50   51 2
  90   50   52 2
  91   50   53 1
  92   53   54 ar
  93   53   58 ar
  94   54   55 ar
  95   54   61 1
  96   55   56 ar
  97   55   97 1
  98   56   57 ar
  99   56   60 1
 100   57   58 ar
 101   57   98 1
 102   58   59 1
 103   59   99 1
 104   59  100 1
 105   59  101 1
 106   60  102 1
 107   60  103 1
 108   60  104 1
 109   61  105 1
 110   61  106 1
 111   61  107 1
 112   62   63 2
 113   62   64 1
 114   64  108 1

#	End of record

