#	Name: ASD03330913
#	Creating user name:	WinNT
#	Creation time:	15. 06. 2019 20:38

#	Modifying user name:	WinNT
#	Modification time:	15. 06. 2019 20:38

#	Program:	/corina/corina34_cracker 3.40 0067  02.08.2006

@<TRIPOS>MOLECULE
ASD03330913
  45   47    0    0    0
SMALL
NO_CHARGES


@<TRIPOS>ATOM
   1 C1            -0.0180     1.4750     0.0102 C.ar    
   2 C2             0.0021    -0.0041     0.0020 C.2     
   3 N3            -1.0222    -0.8148     0.3856 N.pl3   
   4 C4            -0.6038    -2.1019     0.2291 C.2     
   5 C5             0.6667    -2.0565    -0.2481 C.2     
   6 N6             1.0091    -0.7551    -0.3818 N.2     
   7 C7             1.5172    -3.2165    -0.5681 C.2     
   8 N8             2.7664    -3.0272    -1.0373 N.am    
   9 C9            -0.9758     2.1577     0.7604 C.ar    
  10 O10            1.0919    -4.3447    -0.4088 O.2     
  11 C11            3.6120    -4.1805    -1.3554 C.3     
  12 C12            2.9355    -5.0262    -2.4361 C.3     
  13 C13            4.9695    -3.6924    -1.8651 C.3     
  14 C14           -2.3463    -0.4289     0.8795 C.3     
  15 C15           -3.2839    -1.6364     0.7695 C.3     
  16 C16           -2.6257    -2.8601     1.4130 C.3     
  17 C17           -1.4428    -3.3132     0.5462 C.3     
  18 C18           -0.9899     3.5390     0.7643 C.ar    
  19 C19           -0.0536     4.2460     0.0232 C.ar    
  20 C20            0.8984     3.5709    -0.7232 C.ar    
  21 C21            0.9246     2.1918    -0.7280 C.ar    
  22 F22           -0.0709     5.5968     0.0292 F       
  23 F23           -1.9165     4.2023     1.4901 F       
  24 C24            3.8141    -5.0272    -0.0972 C.3     
  25 H25            3.1056    -2.1274    -1.1643 H       
  26 H26           -1.7048     1.6074     1.3367 H       
  27 H27            2.7915    -4.4230    -3.3324 H       
  28 H28            3.5646    -5.8843    -2.6728 H       
  29 H29            1.9683    -5.3739    -2.0729 H       
  30 H30            5.4515    -3.0899    -1.0952 H       
  31 H31            5.5986    -4.5505    -2.1018 H       
  32 H32            4.8255    -3.0892    -2.7615 H       
  33 H33           -2.2714    -0.1181     1.9216 H       
  34 H34           -2.7358     0.3924     0.2779 H       
  35 H35           -4.2203    -1.4165     1.2822 H       
  36 H36           -3.4864    -1.8439    -0.2812 H       
  37 H37           -2.2681    -2.5994     2.4091 H       
  38 H38           -3.3534    -3.6682     1.4868 H       
  39 H39           -1.8126    -3.7570    -0.3781 H       
  40 H40           -0.8446    -4.0428     1.0920 H       
  41 H41            1.6245     4.1256    -1.2990 H       
  42 H42            1.6676     1.6673    -1.3105 H       
  43 H43            2.8469    -5.3749     0.2660 H       
  44 H44            4.4432    -5.8853    -0.3339 H       
  45 H45            4.2960    -4.4247     0.6727 H       
@<TRIPOS>BOND
   1    1    2 1
   2    1    9 ar
   3    1   21 ar
   4    2    3 1
   5    2    6 2
   6    3    4 1
   7    3   14 1
   8    4    5 2
   9    4   17 1
  10    5    6 1
  11    5    7 1
  12    7    8 am
  13    7   10 2
  14    8   11 1
  15    8   25 1
  16    9   18 ar
  17    9   26 1
  18   11   12 1
  19   11   13 1
  20   11   24 1
  21   12   27 1
  22   12   28 1
  23   12   29 1
  24   13   30 1
  25   13   31 1
  26   13   32 1
  27   14   15 1
  28   14   33 1
  29   14   34 1
  30   15   16 1
  31   15   35 1
  32   15   36 1
  33   16   17 1
  34   16   37 1
  35   16   38 1
  36   17   39 1
  37   17   40 1
  38   18   19 ar
  39   18   23 1
  40   19   20 ar
  41   19   22 1
  42   20   21 ar
  43   20   41 1
  44   21   42 1
  45   24   43 1
  46   24   44 1
  47   24   45 1

#	End of record

