#	Name: ASD09740224
#	Creating user name:	WinNT
#	Creation time:	15. 06. 2019 21:23

#	Modifying user name:	WinNT
#	Modification time:	15. 06. 2019 21:23

#	Program:	/corina/corina34_cracker 3.40 0067  02.08.2006

@<TRIPOS>MOLECULE
ASD09740224
  60   63    0    0    0
SMALL
NO_CHARGES


@<TRIPOS>ATOM
   1 O1            -0.2478     1.3708    -0.0233 O.3     
   2 N2            -0.3272     0.1634     0.0603 N.2     
   3 C3             1.0346     1.7489     0.0955 C.2     
   4 N4             1.7410     0.6443     0.2618 N.2     
   5 C5             0.8505    -0.3593     0.2362 C.2     
   6 C6             1.1594    -1.8267     0.3850 C.3     
   7 C7             1.5549     3.1305     0.0494 C.ar    
   8 C8             0.4195    -2.3825     1.6040 C.3     
   9 C9             0.7072    -2.5730    -0.8722 C.3     
  10 C10            1.0540    -4.0585    -0.7320 C.3     
  11 N11            0.4657    -4.5657     0.5152 N.am    
  12 C12            0.7631    -3.8658     1.7724 C.3     
  13 C13            0.6775     4.2023    -0.1336 C.ar    
  14 C14            1.1635     5.4894    -0.1760 C.ar    
  15 C15            2.5318     5.7240    -0.0368 C.ar    
  16 C16            3.4086     4.6547     0.1459 C.ar    
  17 C17            2.9240     3.3669     0.1944 C.ar    
  18 C18            3.0543     7.1109    -0.0836 C.ar    
  19 C19           -0.3318    -5.6521     0.5062 C.2     
  20 O20           -0.5705    -6.2220    -0.5402 O.2     
  21 O21           -0.8641    -6.1061     1.6565 O.3     
  22 C22           -1.7135    -7.2807     1.5715 C.3     
  23 C23           -0.9100    -8.4508     1.0005 C.3     
  24 C24           -2.2220    -7.6445     2.9679 C.3     
  25 C25           -2.9035    -6.9845     0.6566 C.3     
  26 C26            2.5983     8.0615     0.8284 C.ar    
  27 C27            4.0075     7.4677    -1.0361 C.ar    
  28 C28            4.4901     8.7600    -1.0749 C.ar    
  29 C29            4.0297     9.7005    -0.1710 C.ar    
  30 C30            3.0881     9.3507     0.7801 C.ar    
  31 C31            0.2174     6.6457    -0.3733 C.3     
  32 F32           -1.0669     6.1576    -0.6372 F       
  33 F33            0.1896     7.4286     0.7858 F       
  34 F34            0.6510     7.4243    -1.4517 F       
  35 H35            2.2328    -1.9601     0.5198 H       
  36 H36            0.7248    -1.8349     2.4957 H       
  37 H37           -0.6551    -2.2721     1.4588 H       
  38 H38           -0.3702    -2.4608    -0.9941 H       
  39 H39            1.2171    -2.1610    -1.7431 H       
  40 H40            0.6466    -4.6104    -1.5790 H       
  41 H41            2.1368    -4.1796    -0.7010 H       
  42 H42            1.8222    -3.9712     2.0076 H       
  43 H43            0.1638    -4.2906     2.5777 H       
  44 H44           -0.3816     4.0209    -0.2421 H       
  45 H45            4.4676     4.8374     0.2536 H       
  46 H46            3.6030     2.5391     0.3362 H       
  47 H47           -0.0622    -8.6618     1.6523 H       
  48 H48           -1.5476    -9.3326     0.9367 H       
  49 H49           -0.5477    -8.1916     0.0056 H       
  50 H50           -2.7944    -6.8109     3.3748 H       
  51 H51           -2.8596    -8.5262     2.9041 H       
  52 H52           -1.3742    -7.8555     3.6197 H       
  53 H53           -2.5412    -6.7253    -0.3382 H       
  54 H54           -3.5410    -7.8662     0.5928 H       
  55 H55           -3.4759    -6.1508     1.0634 H       
  56 H56            1.8629     7.7896     1.5711 H       
  57 H57            4.3679     6.7341    -1.7420 H       
  58 H58            5.2289     9.0374    -1.8122 H       
  59 H59            4.4105    10.7106    -0.2049 H       
  60 H60            2.7322    10.0892     1.4833 H       
@<TRIPOS>BOND
   1    1    2 1
   2    1    3 1
   3    2    5 2
   4    3    4 2
   5    3    7 1
   6    4    5 1
   7    5    6 1
   8    6    8 1
   9    6    9 1
  10    6   35 1
  11    7   13 ar
  12    7   17 ar
  13    8   12 1
  14    8   36 1
  15    8   37 1
  16    9   10 1
  17    9   38 1
  18    9   39 1
  19   10   11 1
  20   10   40 1
  21   10   41 1
  22   11   12 1
  23   11   19 am
  24   12   42 1
  25   12   43 1
  26   13   14 ar
  27   13   44 1
  28   14   15 ar
  29   14   31 1
  30   15   16 ar
  31   15   18 1
  32   16   17 ar
  33   16   45 1
  34   17   46 1
  35   18   26 ar
  36   18   27 ar
  37   19   20 2
  38   19   21 1
  39   21   22 1
  40   22   23 1
  41   22   24 1
  42   22   25 1
  43   23   47 1
  44   23   48 1
  45   23   49 1
  46   24   50 1
  47   24   51 1
  48   24   52 1
  49   25   53 1
  50   25   54 1
  51   25   55 1
  52   26   30 ar
  53   26   56 1
  54   27   28 ar
  55   27   57 1
  56   28   29 ar
  57   28   58 1
  58   29   30 ar
  59   29   59 1
  60   30   60 1
  61   31   32 1
  62   31   33 1
  63   31   34 1

#	End of record

