#	Name: ASD09116097
#	Creating user name:	WinNT
#	Creation time:	15. 06. 2019 21:20

#	Modifying user name:	WinNT
#	Modification time:	15. 06. 2019 21:20

#	Program:	/corina/corina34_cracker 3.40 0067  02.08.2006

@<TRIPOS>MOLECULE
ASD09116097
  68   73    0    0    0
SMALL
NO_CHARGES


@<TRIPOS>ATOM
   1 C1             6.1847    -1.6282     1.4443 C.ar    
   2 N2             5.1087    -2.4752     1.1883 N.pl3   
   3 N3             3.8729    -2.1196     0.6240 N.2     
   4 C4             3.1524    -3.2132     0.5587 C.2     
   5 N5             3.8621    -4.2364     1.0487 N.2     
   6 C6             5.0480    -3.8121     1.4294 C.2     
   7 N7             6.0498    -4.5854     1.9834 N.pl3   
   8 N8             1.8533    -3.2968     0.0582 N.pl3   
   9 C9             6.1060    -0.2623     1.1358 C.ar    
  10 N10            7.2990    -2.0992     1.9893 N.ar    
  11 C11            8.3219    -1.3005     2.2346 C.ar    
  12 N12            8.2985    -0.0203     1.9601 N.ar    
  13 C13            7.2072     0.5557     1.4084 C.ar    
  14 C14            1.2290    -4.5416    -0.0611 C.ar    
  15 C15           -0.1520    -4.6500     0.0461 C.ar    
  16 N16           -0.7491    -5.8221    -0.0582 N.ar    
  17 C17           -0.0637    -6.9247    -0.2647 C.ar    
  18 C18            1.3160    -6.8952    -0.3957 C.ar    
  19 C19            1.9834    -5.6913    -0.2952 C.ar    
  20 C20            6.9855     1.8929     1.0434 C.2     
  21 C21            5.7996     2.1576     0.5187 C.2     
  22 S22            4.8196     0.7037     0.4285 S.3     
  23 C23            8.0318     2.9601     1.2373 C.3     
  24 C24           -0.7327    -8.2715    -0.3539 C.3     
  25 C25           -0.9832    -8.6930    -1.7658 C.3     
  26 C26            0.1779    -9.2553    -2.5620 C.3     
  27 C27            1.1293    -8.1246    -2.9942 C.3     
  28 C28            2.4225    -8.2427    -2.1420 C.3     
  29 C29            2.0452    -8.1830    -0.6629 C.3     
  30 N30            1.4573    -8.2673    -4.4189 N.3     
  31 C31            2.0989    -9.5625    -4.6845 C.3     
  32 C32            2.3516    -9.7051    -6.1872 C.3     
  33 N33            3.2002    -8.5964    -6.6459 N.3     
  34 C34            2.5586    -7.3012    -6.3804 C.3     
  35 C35            2.3059    -7.1587    -4.8777 C.3     
  36 C36            3.5282    -8.7392    -8.0707 C.3     
  37 H37            5.9085    -5.5348     2.1230 H       
  38 H38            6.8945    -4.1789     2.2327 H       
  39 H39            1.3830    -2.4909    -0.2071 H       
  40 H40            9.2124    -1.7196     2.6794 H       
  41 H41           -0.7445    -3.7634     0.2175 H       
  42 H42            3.0584    -5.6420    -0.3865 H       
  43 H43            5.4790     3.1349     0.1891 H       
  44 H44            8.6561     3.0230     0.3460 H       
  45 H45            7.5445     3.9200     1.4081 H       
  46 H46            8.6516     2.7090     2.0981 H       
  47 H47           -0.0967    -9.0139     0.1282 H       
  48 H48           -1.6846    -8.2283     0.1754 H       
  49 H49           -1.7711    -9.4461    -1.7520 H       
  50 H50           -1.3677    -7.8281    -2.3065 H       
  51 H51            0.7239    -9.9707    -1.9471 H       
  52 H52           -0.2044    -9.7630    -3.4475 H       
  53 H53            0.6580    -7.1577    -2.8180 H       
  54 H54            2.9151    -9.1914    -2.3552 H       
  55 H55            3.0942    -7.4183    -2.3812 H       
  56 H56            2.9484    -8.2238    -0.0541 H       
  57 H57            1.3993    -9.0258    -0.4169 H       
  58 H58            3.0472    -9.6151    -4.1496 H       
  59 H59            1.4459   -10.3677    -4.3476 H       
  60 H60            2.8536   -10.6525    -6.3833 H       
  61 H61            1.4009    -9.6799    -6.7199 H       
  62 H62            3.2116    -6.4961    -6.7173 H       
  63 H63            1.6103    -7.2487    -6.9153 H       
  64 H64            1.8039    -6.2113    -4.6816 H       
  65 H65            3.2566    -7.1839    -4.3450 H       
  66 H66            2.6091    -8.7414    -8.6567 H       
  67 H67            4.1568    -7.9058    -8.3841 H       
  68 H68            4.0620    -9.6764    -8.2285 H       
@<TRIPOS>BOND
   1    1    2 1
   2    1    9 ar
   3    1   10 ar
   4    2    3 1
   5    2    6 1
   6    3    4 2
   7    4    5 1
   8    4    8 1
   9    5    6 2
  10    6    7 1
  11    7   37 1
  12    7   38 1
  13    8   14 1
  14    8   39 1
  15    9   13 ar
  16    9   22 1
  17   10   11 ar
  18   11   12 ar
  19   11   40 1
  20   12   13 ar
  21   13   20 1
  22   14   15 ar
  23   14   19 ar
  24   15   16 ar
  25   15   41 1
  26   16   17 ar
  27   17   18 ar
  28   17   24 1
  29   18   19 ar
  30   18   29 1
  31   19   42 1
  32   20   21 2
  33   20   23 1
  34   21   22 1
  35   21   43 1
  36   23   44 1
  37   23   45 1
  38   23   46 1
  39   24   25 1
  40   24   47 1
  41   24   48 1
  42   25   26 1
  43   25   49 1
  44   25   50 1
  45   26   27 1
  46   26   51 1
  47   26   52 1
  48   27   28 1
  49   27   30 1
  50   27   53 1
  51   28   29 1
  52   28   54 1
  53   28   55 1
  54   29   56 1
  55   29   57 1
  56   30   31 1
  57   30   35 1
  58   31   32 1
  59   31   58 1
  60   31   59 1
  61   32   33 1
  62   32   60 1
  63   32   61 1
  64   33   34 1
  65   33   36 1
  66   34   35 1
  67   34   62 1
  68   34   63 1
  69   35   64 1
  70   35   65 1
  71   36   66 1
  72   36   67 1
  73   36   68 1

#	End of record

