#	Name: ASD00170474
#	Creating user name:	WinNT
#	Creation time:	15. 06. 2019 18:32

#	Modifying user name:	WinNT
#	Modification time:	15. 06. 2019 18:32

#	Program:	/corina/corina34_cracker 3.40 0067  02.08.2006

@<TRIPOS>MOLECULE
ASD00170474
  46   49    0    0    0
SMALL
NO_CHARGES


@<TRIPOS>ATOM
   1 C1            -0.0304     1.3879     0.0167 C.ar    
   2 C2            -0.0020    -0.0121     0.0215 C.ar    
   3 C3            -1.1908    -0.7287     0.0608 C.ar    
   4 C4            -2.3958    -0.0614     0.0949 C.ar    
   5 C5            -2.4364     1.3295     0.0906 C.ar    
   6 C6            -1.2489     2.0576     0.0571 C.ar    
   7 C7            -3.8258    -0.5372     0.1406 C.3     
   8 C8            -4.6724     0.7167     0.1615 C.2     
   9 C9            -3.8601     1.7896     0.1323 C.2     
  10 S10           -6.3491     1.2595     0.2111 S.3     
  11 C11           -5.8093     2.9335     0.1880 C.2     
  12 N12           -4.5201     2.9687     0.1481 N.2     
  13 N13           -6.6396     4.0423     0.2097 N.pl3   
  14 N14            1.2217    -0.6875    -0.0137 N.am    
  15 C15            1.2875    -1.9370    -0.5148 C.2     
  16 O16            0.2746    -2.5028    -0.8683 O.2     
  17 C17            2.6197    -2.6310    -0.6358 C.3     
  18 C18            1.2372     2.1556    -0.0253 C.ar    
  19 C19            2.0681     2.0769    -1.1477 C.ar    
  20 C20            3.2506     2.7962    -1.1808 C.ar    
  21 C21            3.6089     3.5919    -0.1028 C.ar    
  22 C22            2.7845     3.6702     1.0123 C.ar    
  23 C23            1.6016     2.9622     1.0511 C.ar    
  24 O24            4.7702     4.2966    -0.1375 O.3     
  25 C25            5.0784     5.0959     1.0063 C.3     
  26 O26            1.7160     1.2963    -2.2024 O.3     
  27 C27            2.6132     1.2647    -3.3141 C.3     
  28 H28           -1.1710    -1.8085     0.0642 H       
  29 H29           -1.2747     3.1373     0.0535 H       
  30 H30           -4.0536    -1.1309    -0.7447 H       
  31 H31           -3.9989    -1.1236     1.0430 H       
  32 H32           -7.6023     3.9268     0.2401 H       
  33 H33           -6.2584     4.9341     0.1944 H       
  34 H34            2.0232    -0.2569     0.3225 H       
  35 H35            2.8261    -3.1836     0.2807 H       
  36 H36            2.5943    -3.3217    -1.4787 H       
  37 H37            3.4023    -1.8896    -0.7971 H       
  38 H38            3.8942     2.7375    -2.0460 H       
  39 H39            3.0685     4.2906     1.8495 H       
  40 H40            0.9625     3.0254     1.9194 H       
  41 H41            4.2915     5.8353     1.1555 H       
  42 H42            5.1493     4.4578     1.8871 H       
  43 H43            6.0295     5.6044     0.8485 H       
  44 H44            2.2136     0.6055    -4.0848 H       
  45 H45            2.7259     2.2704    -3.7189 H       
  46 H46            3.5845     0.8938    -2.9867 H       
@<TRIPOS>BOND
   1    1    2 ar
   2    1   18 1
   3    1    6 ar
   4    2    3 ar
   5    2   14 1
   6    3    4 ar
   7    3   28 1
   8    4    5 ar
   9    4    7 1
  10    5    6 ar
  11    5    9 1
  12    6   29 1
  13    7    8 1
  14    7   30 1
  15    7   31 1
  16    8    9 2
  17    8   10 1
  18    9   12 1
  19   10   11 1
  20   11   12 2
  21   11   13 1
  22   13   32 1
  23   13   33 1
  24   14   15 am
  25   14   34 1
  26   15   16 2
  27   15   17 1
  28   17   35 1
  29   17   36 1
  30   17   37 1
  31   18   19 ar
  32   18   23 ar
  33   19   20 ar
  34   19   26 1
  35   20   21 ar
  36   20   38 1
  37   21   22 ar
  38   21   24 1
  39   22   23 ar
  40   22   39 1
  41   23   40 1
  42   24   25 1
  43   25   41 1
  44   25   42 1
  45   25   43 1
  46   26   27 1
  47   27   44 1
  48   27   45 1
  49   27   46 1

#	End of record

