#	Name: ASD07930776
#	Creating user name:	WinNT
#	Creation time:	15. 06. 2019 21:13

#	Modifying user name:	WinNT
#	Modification time:	15. 06. 2019 21:13

#	Program:	/corina/corina34_cracker 3.40 0067  02.08.2006

@<TRIPOS>MOLECULE
ASD07930776
  47   49    0    0    0
SMALL
NO_CHARGES


@<TRIPOS>ATOM
   1 C1            -0.0502     1.4822    -0.0094 C.3     
   2 N2             0.7773    -0.3946    -2.1782 N.2     
   3 N3            -0.8979    -1.7688    -1.3026 N.pl3   
   4 C4            -0.9127    -2.8082    -0.2679 C.3     
   5 C5            -1.2240    -2.1653     1.0907 C.3     
   6 S6             0.0077    -0.8612     1.4011 S.o2    
   7 N7            -0.0234     0.0174    -0.0143 N.am    
   8 C8            -0.0231    -0.7068    -1.1980 C.2     
   9 C9             0.4557    -3.4899    -0.2090 C.3     
  10 O10           -0.4553     0.0438     2.3940 O.2     
  11 O11            1.3184    -1.4077     1.4540 O.2     
  12 C12           -1.9712    -3.8296    -0.5958 C.ar    
  13 C13           -1.8922    -4.5382    -1.7799 C.ar    
  14 N14           -2.9584    -4.0399     0.2534 N.ar    
  15 C15           -3.9096    -4.9269     0.0068 C.ar    
  16 C16           -3.8967    -5.6715    -1.1670 C.ar    
  17 C17           -2.8711    -5.4781    -2.0758 C.ar    
  18 Cl18          -0.5840    -4.2561    -2.8856 Cl      
  19 N19           -4.9334    -5.1165     0.9331 N.am    
  20 C20           -4.8971    -4.4758     2.1182 C.2     
  21 C21           -6.0371    -4.5860     3.0535 C.ar    
  22 O22           -3.9272    -3.8073     2.4183 O.2     
  23 C23           -6.0001    -3.9233     4.2800 C.ar    
  24 N24           -7.1024    -5.3138     2.7229 N.ar    
  25 C25           -8.1164    -5.4110     3.5555 C.ar    
  26 C26           -8.0769    -4.7514     4.7851 C.ar    
  27 N27           -7.0191    -4.0224     5.1139 N.ar    
  28 O28           -9.1221    -4.8521     5.6411 O.3     
  29 C29           -9.0145    -4.1513     6.8818 C.3     
  30 H30            0.9705     1.8643    -0.0191 H       
  31 H31           -0.5801     1.8388    -0.8927 H       
  32 H32           -0.5612     1.8332     0.8872 H       
  33 H33            0.7641    -0.9119    -2.9987 H       
  34 H34           -1.4993    -1.8299    -2.0612 H       
  35 H35           -2.2231    -1.7299     1.0709 H       
  36 H36           -1.1667    -2.9193     1.8757 H       
  37 H37            1.2200    -2.7505     0.0301 H       
  38 H38            0.4440    -4.2622     0.5601 H       
  39 H39            0.6779    -3.9428    -1.1753 H       
  40 H40           -4.6741    -6.3946    -1.3649 H       
  41 H41           -2.8350    -6.0421    -2.9961 H       
  42 H42           -5.6722    -5.7095     0.7248 H       
  43 H43           -5.1384    -3.3298     4.5477 H       
  44 H44           -8.9802    -6.0012     3.2873 H       
  45 H45           -9.9164    -4.3156     7.4714 H       
  46 H46           -8.1484    -4.5184     7.4325 H       
  47 H47           -8.8965    -3.0852     6.6878 H       
@<TRIPOS>BOND
   1    1    7 1
   2    1   30 1
   3    1   31 1
   4    1   32 1
   5    2    8 2
   6    2   33 1
   7    3    4 1
   8    3    8 1
   9    3   34 1
  10    4    5 1
  11    4    9 1
  12    4   12 1
  13    5    6 1
  14    5   35 1
  15    5   36 1
  16    6    7 am
  17    6   10 2
  18    6   11 2
  19    7    8 1
  20    9   37 1
  21    9   38 1
  22    9   39 1
  23   12   14 ar
  24   12   13 ar
  25   13   18 1
  26   13   17 ar
  27   14   15 ar
  28   15   16 ar
  29   15   19 1
  30   16   17 ar
  31   16   40 1
  32   17   41 1
  33   19   20 am
  34   19   42 1
  35   20   21 1
  36   20   22 2
  37   21   23 ar
  38   21   24 ar
  39   23   27 ar
  40   23   43 1
  41   24   25 ar
  42   25   26 ar
  43   25   44 1
  44   26   27 ar
  45   26   28 1
  46   28   29 1
  47   29   45 1
  48   29   46 1
  49   29   47 1

#	End of record

