#	Name: ASD07300986
#	Creating user name:	WinNT
#	Creation time:	15. 06. 2019 21:10

#	Modifying user name:	WinNT
#	Modification time:	15. 06. 2019 21:10

#	Program:	/corina/corina34_cracker 3.40 0067  02.08.2006

@<TRIPOS>MOLECULE
ASD07300986
  38   39    0    0    0
SMALL
NO_CHARGES


@<TRIPOS>ATOM
   1 C1            -0.0169     1.4668     0.0596 C.2     
   2 C2             0.0021    -0.0041     0.0009 C.2     
   3 C3             1.2692    -0.6324    -0.0644 C.2     
   4 C4             2.3698     0.1606    -0.0682 C.2     
   5 N5             2.2544     1.5070    -0.0114 N.pl3   
   6 N6             1.1276     2.1152     0.0486 N.2     
   7 O7            -1.0319    -0.6551     0.0086 O.2     
   8 C8            -1.2579     2.1785     0.1214 C.1     
   9 C9            -2.2754     2.7620     0.1721 C.1     
  10 Si10          -3.9221     3.7062     0.2542 Si      
  11 C11           -3.5854     5.5375     0.3175 C.3     
  12 C12           -4.9391     3.3137    -1.2566 C.3     
  13 C13           -4.8565     3.1935     1.7822 C.3     
  14 C14            3.4238     2.2745    -0.0179 C.ar    
  15 C15            3.3477     3.6585    -0.1146 C.ar    
  16 C16            4.5040     4.4131    -0.1208 C.ar    
  17 C17            5.7370     3.7929    -0.0310 C.ar    
  18 C18            5.8163     2.4158     0.0653 C.ar    
  19 C19            4.6634     1.6553     0.0778 C.ar    
  20 C20            4.4225     5.9143    -0.2261 C.3     
  21 F21            4.3460     6.4682     1.0563 F       
  22 F22            5.5627     6.3987    -0.8761 F       
  23 F23            3.2832     6.2694    -0.9562 F       
  24 H24            1.3567    -1.7079    -0.1093 H       
  25 H25            3.3506    -0.2889    -0.1169 H       
  26 H26           -3.0387     5.8375    -0.5765 H       
  27 H27           -4.5301     6.0792     0.3645 H       
  28 H28           -2.9904     5.7672     1.2014 H       
  29 H29           -5.1361     2.2422    -1.2936 H       
  30 H30           -5.8837     3.8554    -1.2095 H       
  31 H31           -4.3924     3.6137    -2.1506 H       
  32 H32           -4.2616     3.4232     2.6661 H       
  33 H33           -5.8012     3.7352     1.8292 H       
  34 H34           -5.0536     2.1221     1.7452 H       
  35 H35            2.3853     4.1434    -0.1851 H       
  36 H36            6.6399     4.3854    -0.0365 H       
  37 H37            6.7807     1.9346     0.1349 H       
  38 H38            4.7259     0.5800     0.1576 H       
@<TRIPOS>BOND
   1    1    2 1
   2    1    6 2
   3    1    8 1
   4    2    3 1
   5    2    7 2
   6    3    4 2
   7    3   24 1
   8    4    5 1
   9    4   25 1
  10    5    6 1
  11    5   14 1
  12    8    9 3
  13    9   10 1
  14   10   11 1
  15   10   12 1
  16   10   13 1
  17   11   26 1
  18   11   27 1
  19   11   28 1
  20   12   29 1
  21   12   30 1
  22   12   31 1
  23   13   32 1
  24   13   33 1
  25   13   34 1
  26   14   15 ar
  27   14   19 ar
  28   15   16 ar
  29   15   35 1
  30   16   17 ar
  31   16   20 1
  32   17   18 ar
  33   17   36 1
  34   18   19 ar
  35   18   37 1
  36   19   38 1
  37   20   21 1
  38   20   22 1
  39   20   23 1

#	End of record

