#	Name: ASD03731808
#	Creating user name:	WinNT
#	Creation time:	15. 06. 2019 20:46

#	Modifying user name:	WinNT
#	Modification time:	15. 06. 2019 20:46

#	Program:	/corina/corina34_cracker 3.40 0067  02.08.2006

@<TRIPOS>MOLECULE
ASD03731808
  37   38    0    0    0
SMALL
NO_CHARGES


@<TRIPOS>ATOM
   1 C1             0.1240     1.4715    -0.0154 C.2     
   2 C2             0.1065    -0.0047    -0.0178 C.ar    
   3 C3             1.2948    -0.7153    -0.1774 C.ar    
   4 C4             1.2727    -2.1078    -0.1785 C.ar    
   5 C5             0.0530    -2.7855    -0.0188 C.ar    
   6 C6            -1.1248    -2.0671     0.1394 C.ar    
   7 C7            -1.1020    -0.6902     0.1458 C.ar    
   8 O8             1.1749     2.0673    -0.1526 O.2     
   9 N9            -1.0259     2.1588     0.1333 N.am    
  10 O10            0.0255    -4.1404    -0.0195 O.3     
  11 C11            0.2483    -4.7836     1.1565 C.ar    
  12 C12            0.1674    -6.1677     1.2181 C.ar    
  13 C13            0.3942    -6.8190     2.4147 C.ar    
  14 C14            0.7013    -6.0932     3.5510 C.ar    
  15 C15            0.7822    -4.7143     3.4926 C.ar    
  16 C16            0.5627    -4.0583     2.2966 C.ar    
  17 C17           -0.1682    -6.9593    -0.0196 C.3     
  18 F18           -0.1912    -8.3232     0.2911 F       
  19 F19           -1.4239    -6.5685    -0.4968 F       
  20 F20            0.7988    -6.7210    -1.0021 F       
  21 S21           -1.0063     3.8147     0.1361 S.o2    
  22 O22           -2.3647     4.1808     0.3363 O.2     
  23 O23           -0.0085     4.1518     1.0899 O.2     
  24 C24           -0.4659     4.2637    -1.5363 C.3     
  25 C25            2.4889    -2.8458    -0.3423 C.1     
  26 N26            3.4537    -3.4312    -0.4722 N.1     
  27 H27            2.2293    -0.1881    -0.3001 H       
  28 H28           -2.0618    -2.5902     0.2617 H       
  29 H29           -2.0209    -0.1375     0.2737 H       
  30 H30           -1.8648     1.6835     0.2387 H       
  31 H31            0.3313    -7.8961     2.4631 H       
  32 H32            0.8780    -6.6043     4.4858 H       
  33 H33            1.0215    -4.1497     4.3816 H       
  34 H34            0.6310    -2.9814     2.2504 H       
  35 H35           -1.1721     3.8663    -2.2653 H       
  36 H36           -0.4240     5.3493    -1.6254 H       
  37 H37            0.5231     3.8454    -1.7231 H       
@<TRIPOS>BOND
   1    1    2 1
   2    1    8 2
   3    1    9 am
   4    2    3 ar
   5    2    7 ar
   6    3    4 ar
   7    3   27 1
   8    4    5 ar
   9    4   25 1
  10    5    6 ar
  11    5   10 1
  12    6    7 ar
  13    6   28 1
  14    7   29 1
  15    9   21 am
  16    9   30 1
  17   10   11 1
  18   11   12 ar
  19   11   16 ar
  20   12   13 ar
  21   12   17 1
  22   13   14 ar
  23   13   31 1
  24   14   15 ar
  25   14   32 1
  26   15   16 ar
  27   15   33 1
  28   16   34 1
  29   17   18 1
  30   17   19 1
  31   17   20 1
  32   21   22 2
  33   21   23 2
  34   21   24 1
  35   24   35 1
  36   24   36 1
  37   24   37 1
  38   25   26 3

#	End of record

