#	Name: ASD03470001
#	Creating user name:	WinNT
#	Creation time:	15. 06. 2019 20:42

#	Modifying user name:	WinNT
#	Modification time:	15. 06. 2019 20:42

#	Program:	/corina/corina34_cracker 3.40 0067  02.08.2006

@<TRIPOS>MOLECULE
ASD03470001
  45   47    0    0    0
SMALL
NO_CHARGES


@<TRIPOS>ATOM
   1 N1            -0.0161     1.3326     0.0094 N.ar    
   2 Cl2            0.0884    -4.5168    -0.0262 Cl      
   3 C3             0.0717    -2.7809    -0.0155 C.ar    
   4 O4             2.6768     3.1065    -2.0327 O.2     
   5 C5            -1.1470    -2.1039     0.0004 C.ar    
   6 O6             4.6115     4.0099    -1.4635 O.3     
   7 C7            -1.1939    -0.7440     0.0090 C.ar    
   8 C8             0.0021    -0.0041     0.0020 C.ar    
   9 C9             1.2380    -0.6950    -0.0135 C.ar    
  10 C10            1.2508    -2.0959    -0.0222 C.ar    
  11 C11            1.0895     2.0385     0.0026 C.ar    
  12 C12            2.3431     1.4391    -0.0130 C.ar    
  13 C13            2.4416     0.0539    -0.0205 C.ar    
  14 C14            3.7609    -0.6190    -0.0362 C.ar    
  15 C15            3.5886     2.2875    -0.0203 C.3     
  16 C16            3.5919     3.1644    -1.2459 C.2     
  17 C17            3.6164     3.1635     1.2337 C.3     
  18 C18            4.9380     3.9323     1.2897 C.3     
  19 C19            4.9657     4.8084     2.5437 C.3     
  20 C20            0.9976     3.5427     0.0116 C.3     
  21 C21            4.1431    -1.3854    -1.1372 C.ar    
  22 C22            5.3734    -2.0098    -1.1459 C.ar    
  23 C23            6.2274    -1.8770    -0.0656 C.ar    
  24 C24            5.8539    -1.1186     1.0296 C.ar    
  25 C25            4.6287    -0.4842     1.0475 C.ar    
  26 H26           -2.0682    -2.6677     0.0054 H       
  27 H27            4.5693     4.5520    -2.2631 H       
  28 H28           -2.1461    -0.2347     0.0216 H       
  29 H29            2.1892    -2.6303    -0.0337 H       
  30 H30            4.4674     1.6426    -0.0326 H       
  31 H31            2.7864     3.8695     1.2022 H       
  32 H32            3.5244     2.5340     2.1188 H       
  33 H33            5.7679     3.2263     1.3212 H       
  34 H34            5.0299     4.5618     0.4046 H       
  35 H35            4.1358     5.5143     2.5122 H       
  36 H36            4.8738     4.1788     3.4288 H       
  37 H37            5.9073     5.3560     2.5836 H       
  38 H38            0.9852     3.8998     1.0413 H       
  39 H39            1.8588     3.9624    -0.5083 H       
  40 H40            0.0822     3.8537    -0.4919 H       
  41 H41            3.4771    -1.4901    -1.9810 H       
  42 H42            5.6703    -2.6038    -1.9976 H       
  43 H43            7.1894    -2.3677    -0.0770 H       
  44 H44            6.5245    -1.0192     1.8703 H       
  45 H45            4.3403     0.1118     1.9007 H       
@<TRIPOS>BOND
   1    1    8 ar
   2    1   11 ar
   3    2    3 1
   4    3    5 ar
   5    3   10 ar
   6    4   16 2
   7    5    7 ar
   8    5   26 1
   9    6   16 1
  10    6   27 1
  11    7    8 ar
  12    7   28 1
  13    8    9 ar
  14    9   10 ar
  15    9   13 ar
  16   10   29 1
  17   11   12 ar
  18   11   20 1
  19   12   13 ar
  20   12   15 1
  21   13   14 1
  22   14   21 ar
  23   14   25 ar
  24   15   16 1
  25   15   17 1
  26   15   30 1
  27   17   18 1
  28   17   31 1
  29   17   32 1
  30   18   19 1
  31   18   33 1
  32   18   34 1
  33   19   35 1
  34   19   36 1
  35   19   37 1
  36   20   38 1
  37   20   39 1
  38   20   40 1
  39   21   22 ar
  40   21   41 1
  41   22   23 ar
  42   22   42 1
  43   23   24 ar
  44   23   43 1
  45   24   25 ar
  46   24   44 1
  47   25   45 1

#	End of record

