#	Name: ASD01815111
#	Creating user name:	WinNT
#	Creation time:	15. 06. 2019 19:33

#	Modifying user name:	WinNT
#	Modification time:	15. 06. 2019 19:33

#	Program:	/corina/corina34_cracker 3.40 0067  02.08.2006

@<TRIPOS>MOLECULE
ASD01815111
  60   65    0    0    0
SMALL
NO_CHARGES


@<TRIPOS>ATOM
   1 N1            -0.0162     1.3462     0.0094 N.am    
   2 C2             0.0021    -0.0041     0.0020 C.2     
   3 N3             1.2868     1.8501    -0.0003 N.2     
   4 C4             2.1616     0.8897    -0.0138 C.2     
   5 C5             1.4146    -0.3928    -0.0135 C.2     
   6 O6            -0.9630    -0.7498     0.0072 O.2     
   7 C7             3.6313     0.7885    -0.0280 C.ar    
   8 C8             4.1890    -0.5048    -0.0398 C.ar    
   9 N9             3.3532    -1.6008    -0.0377 N.pl3   
  10 N10            2.0736    -1.5213    -0.0255 N.2     
  11 C11            4.4630     1.9026    -0.0304 C.ar    
  12 C12            5.8322     1.6893    -0.0446 C.ar    
  13 C13            6.3155     0.3911    -0.0558 C.ar    
  14 N14            5.5061    -0.6483    -0.0532 N.ar    
  15 C15            3.9619    -2.9332    -0.0507 C.3     
  16 C16            4.1842    -3.3978     1.3656 C.ar    
  17 C17            3.1982    -4.1114     2.0315 C.ar    
  18 C18            3.4420    -4.5198     3.3316 C.ar    
  19 C19            4.6623    -4.2018     3.9233 C.ar    
  20 N20            5.5791    -3.5169     3.2520 N.ar    
  21 C21            5.3752    -3.1217     2.0119 C.ar    
  22 C22            4.9389    -4.6321     5.3158 C.ar    
  23 C23           -1.2302     2.1662     0.0199 C.3     
  24 C24           -1.2429     3.0425     1.2740 C.3     
  25 C25           -0.0128     3.9524     1.2729 C.3     
  26 C26           -0.0378     4.8423     0.0285 C.3     
  27 C27           -0.0251     3.9660    -1.2256 C.3     
  28 C28           -1.2552     3.0561    -1.2244 C.3     
  29 C29            6.1574    -4.3224     5.9260 C.ar    
  30 C30            6.3666    -4.7464     7.2273 C.ar    
  31 C31            5.3726    -5.4560     7.8755 C.ar    
  32 N32            4.2320    -5.7336     7.2734 N.ar    
  33 C33            3.9857    -5.3468     6.0387 C.ar    
  34 O34           -1.2433     2.2376    -2.3957 O.3     
  35 C35            5.5957    -5.9201     9.2918 C.3     
  36 H36            4.0550     2.9025    -0.0218 H       
  37 H37            6.5151     2.5260    -0.0474 H       
  38 H38            7.3829     0.2269    -0.0672 H       
  39 H39            3.2985    -3.6308    -0.5620 H       
  40 H40            4.9174    -2.8911    -0.5735 H       
  41 H41            2.2614    -4.3428     1.5466 H       
  42 H42            2.6964    -5.0767     3.8796 H       
  43 H43            6.1446    -2.5659     1.4966 H       
  44 H44           -2.1065     1.5180     0.0207 H       
  45 H45           -2.1461     3.6527     1.2817 H       
  46 H46           -1.2251     2.4085     2.1605 H       
  47 H47           -0.0219     4.5767     2.1663 H       
  48 H48            0.8904     3.3423     1.2651 H       
  49 H49           -0.9411     5.4524     0.0363 H       
  50 H50            0.8385     5.4905     0.0277 H       
  51 H51           -0.0430     4.6000    -2.1120 H       
  52 H52            0.8781     3.3558    -1.2333 H       
  53 H53           -2.1584     3.6662    -1.2167 H       
  54 H54            6.9167    -3.7667     5.3958 H       
  55 H55            7.2963    -4.5255     7.7305 H       
  56 H56            3.0398    -5.5932     5.5794 H       
  57 H57           -1.2580     2.7362    -3.2242 H       
  58 H58            5.2505    -5.1524     9.9844 H       
  59 H59            5.0395    -6.8415     9.4641 H       
  60 H60            6.6585    -6.1020     9.4513 H       
@<TRIPOS>BOND
   1    1    2 am
   2    1    3 1
   3    1   23 1
   4    2    6 2
   5    2    5 1
   6    3    4 2
   7    4    5 1
   8    4    7 1
   9    5   10 2
  10    7    8 ar
  11    7   11 ar
  12    8    9 1
  13    8   14 ar
  14    9   10 1
  15    9   15 1
  16   11   12 ar
  17   11   36 1
  18   12   13 ar
  19   12   37 1
  20   13   14 ar
  21   13   38 1
  22   15   16 1
  23   15   39 1
  24   15   40 1
  25   16   17 ar
  26   16   21 ar
  27   17   18 ar
  28   17   41 1
  29   18   19 ar
  30   18   42 1
  31   19   20 ar
  32   19   22 1
  33   20   21 ar
  34   21   43 1
  35   22   29 ar
  36   22   33 ar
  37   23   24 1
  38   23   28 1
  39   23   44 1
  40   24   25 1
  41   24   45 1
  42   24   46 1
  43   25   26 1
  44   25   47 1
  45   25   48 1
  46   26   27 1
  47   26   49 1
  48   26   50 1
  49   27   28 1
  50   27   51 1
  51   27   52 1
  52   28   34 1
  53   28   53 1
  54   29   30 ar
  55   29   54 1
  56   30   31 ar
  57   30   55 1
  58   31   32 ar
  59   31   35 1
  60   32   33 ar
  61   33   56 1
  62   34   57 1
  63   35   58 1
  64   35   59 1
  65   35   60 1

#	End of record

