#	Name: ASD04840090
#	Creating user name:	WinNT
#	Creation time:	15. 06. 2019 20:52

#	Modifying user name:	WinNT
#	Modification time:	15. 06. 2019 20:52

#	Program:	/corina/corina34_cracker 3.40 0067  02.08.2006

@<TRIPOS>MOLECULE
ASD04840090
  46   49    0    0    0
SMALL
NO_CHARGES


@<TRIPOS>ATOM
   1 C1             0.1203     1.4957     0.1412 C.ar    
   2 C2             0.2282     0.0794     0.1248 C.ar    
   3 N3             2.5571     0.3451     0.3977 N.ar    
   4 C4             2.4045     1.6490     0.4063 C.ar    
   5 N5             1.2199     2.2203     0.2821 N.ar    
   6 C6            -0.7935    -0.9364    -0.0129 C.2     
   7 C7            -0.3379    -2.1890     0.0138 C.2     
   8 S8             1.4038    -2.2269     0.2127 S.3     
   9 C9             1.5059    -0.4731     0.2601 C.ar    
  10 N10           -1.1122     2.1080     0.0066 N.pl3   
  11 C11           -1.2256     3.5627     0.1378 C.3     
  12 P12           -1.4620     4.3049    -1.5104 P.3     
  13 O13           -1.4708     5.9096    -1.3801 O.3     
  14 O14           -0.2595     3.8518    -2.4804 O.3     
  15 O15           -2.7511     3.8488    -2.0766 O.2     
  16 C16           -1.1909    -3.3905    -0.1076 C.ar    
  17 C17           -0.6187    -4.6631    -0.0680 C.ar    
  18 C18           -1.4195    -5.7805    -0.1818 C.ar    
  19 C19           -2.7876    -5.6425    -0.3351 C.ar    
  20 C20           -3.3620    -4.3835    -0.3753 C.ar    
  21 C21           -2.5718    -3.2571    -0.2566 C.ar    
  22 C22           -3.6561    -6.8678    -0.4594 C.3     
  23 Cl23          -5.0795    -4.2205    -0.5685 Cl      
  24 C24           -2.4055     3.8976     1.0134 C.ar    
  25 C25           -4.5704     4.5124     2.6194 C.ar    
  26 C26           -4.6235     3.4176     1.7769 C.ar    
  27 C27           -3.5412     3.1104     0.9737 C.ar    
  28 C28           -2.3501     4.9887     1.8604 C.ar    
  29 C29           -3.4324     5.2959     2.6636 C.ar    
  30 H30            3.2768     2.2756     0.5198 H       
  31 H31           -1.8408    -0.6987    -0.1278 H       
  32 H32           -1.9016     1.5744    -0.1747 H       
  33 H33           -0.3153     3.9590     0.5876 H       
  34 H34           -0.6551     6.2791    -1.0151 H       
  35 H35           -0.3205     4.2105    -3.3764 H       
  36 H36            0.4491    -4.7726     0.0513 H       
  37 H37           -0.9774    -6.7654    -0.1516 H       
  38 H38           -3.0210    -2.2754    -0.2836 H       
  39 H39           -3.9819    -7.1842     0.5315 H       
  40 H40           -4.5275    -6.6350    -1.0713 H       
  41 H41           -3.0869    -7.6706    -0.9282 H       
  42 H42           -5.4160     4.7524     3.2469 H       
  43 H43           -5.5125     2.8054     1.7424 H       
  44 H44           -3.5830     2.2556     0.3150 H       
  45 H45           -1.4610     5.6009     1.8949 H       
  46 H46           -3.3909     6.1512     3.3217 H       
@<TRIPOS>BOND
   1    1    2 ar
   2    1    5 ar
   3    1   10 1
   4    2    9 ar
   5    2    6 1
   6    3    4 ar
   7    3    9 ar
   8    4    5 ar
   9    4   30 1
  10    6    7 2
  11    6   31 1
  12    7    8 1
  13    7   16 1
  14    8    9 1
  15   10   11 1
  16   10   32 1
  17   11   12 1
  18   11   24 1
  19   11   33 1
  20   12   13 1
  21   12   14 1
  22   12   15 2
  23   13   34 1
  24   14   35 1
  25   16   17 ar
  26   16   21 ar
  27   17   18 ar
  28   17   36 1
  29   18   19 ar
  30   18   37 1
  31   19   20 ar
  32   19   22 1
  33   20   21 ar
  34   20   23 1
  35   21   38 1
  36   22   39 1
  37   22   40 1
  38   22   41 1
  39   24   28 ar
  40   24   27 ar
  41   25   26 ar
  42   25   29 ar
  43   25   42 1
  44   26   27 ar
  45   26   43 1
  46   27   44 1
  47   28   29 ar
  48   28   45 1
  49   29   46 1

#	End of record

