#	Name: ASD01410620
#	Creating user name:	WinNT
#	Creation time:	15. 06. 2019 19:18

#	Modifying user name:	WinNT
#	Modification time:	15. 06. 2019 19:18

#	Program:	/corina/corina34_cracker 3.40 0067  02.08.2006

@<TRIPOS>MOLECULE
ASD01410620
  68   71    0    0    0
SMALL
NO_CHARGES


@<TRIPOS>ATOM
   1 C1            -0.1058    -1.8423     1.8150 C.ar    
   2 C2             0.5833    -2.3429     2.9109 C.ar    
   3 C3             1.9625    -2.4032     2.8717 C.ar    
   4 N4             2.6274    -1.9921     1.8091 N.ar    
   5 C5             2.0063    -1.5090     0.7456 C.ar    
   6 C6             0.6206    -1.4190     0.7154 C.ar    
   7 O7             2.7298    -1.0974    -0.3258 O.3     
   8 C8             4.0857    -1.1356    -0.2331 C.ar    
   9 C9             4.7547    -2.3473    -0.3585 C.ar    
  10 C10            6.1309    -2.3973    -0.2660 C.ar    
  11 C11            6.8572    -1.2353    -0.0464 C.ar    
  12 C12            6.1878    -0.0086     0.0811 C.ar    
  13 C13            4.7951     0.0323    -0.0201 C.ar    
  14 N14            8.2472    -1.2866     0.0478 N.am    
  15 C15            9.0007    -1.2309    -1.0682 C.2     
  16 C16            8.8887    -1.4011     1.3599 C.3     
  17 O17           10.2055    -1.3478    -0.9929 O.2     
  18 C18            8.3463    -1.0233    -2.4097 C.3     
  19 C19            9.2584    -1.5661    -3.5116 C.3     
  20 C20            8.5940    -1.3553    -4.8736 C.3     
  21 C21            8.3556     0.1391    -5.0990 C.3     
  22 C22            7.4435     0.6819    -3.9971 C.3     
  23 C23            8.1079     0.4711    -2.6351 C.3     
  24 C24            7.6912     0.3498    -6.4610 C.3     
  25 C25            9.1005    -2.8561     1.6903 C.ar    
  26 C26           10.2868    -3.4757     1.3487 C.ar    
  27 C27           10.4813    -4.8153     1.6536 C.ar    
  28 C28            9.4833    -5.5288     2.3009 C.ar    
  29 C29            8.2985    -4.9044     2.6404 C.ar    
  30 C30            8.1092    -3.5683     2.3402 C.ar    
  31 O31           11.6474    -5.4273     1.3182 O.3     
  32 C32           11.7781    -6.8078     1.6631 C.3     
  33 C33           -0.0826    -0.8680    -0.4982 C.3     
  34 F34           -1.4649    -0.8819    -0.2826 F       
  35 F35            0.3406     0.4458    -0.7260 F       
  36 F36            0.2235    -1.6564    -1.6126 F       
  37 C37            6.9505     1.2308     0.3150 C.2     
  38 O38            8.1621     1.1922     0.3980 O.2     
  39 O39            6.3040     2.4069     0.4368 O.3     
  40 H40           -1.1844    -1.7885     1.8184 H       
  41 H41            0.0468    -2.6812     3.7850 H       
  42 H42            2.5035    -2.7915     3.7220 H       
  43 H43            4.1945    -3.2549    -0.5288 H       
  44 H44            6.6435    -3.3428    -0.3645 H       
  45 H45            4.2729     0.9727     0.0769 H       
  46 H46            9.8509    -0.8893     1.3398 H       
  47 H47            8.2507    -0.9456     2.1173 H       
  48 H48            7.3929    -1.5510    -2.4344 H       
  49 H49           10.2118    -1.0383    -3.4869 H       
  50 H50            9.4282    -2.6308    -3.3511 H       
  51 H51            9.2438    -1.7421    -5.6586 H       
  52 H52            7.6406    -1.8831    -4.8983 H       
  53 H53            9.3090     0.6669    -5.0743 H       
  54 H54            7.2737     1.7466    -4.1576 H       
  55 H55            6.4901     0.1541    -4.0218 H       
  56 H56            7.4581     0.8579    -1.8501 H       
  57 H57            9.0613     0.9989    -2.6104 H       
  58 H58            6.7378    -0.1779    -6.4857 H       
  59 H59            7.5213     1.4145    -6.6215 H       
  60 H60            8.3410    -0.0369    -7.2460 H       
  61 H61           11.0621    -2.9181     0.8444 H       
  62 H62            9.6322    -6.5717     2.5389 H       
  63 H63            7.5212    -5.4596     3.1444 H       
  64 H64            7.1824    -3.0820     2.6064 H       
  65 H65           11.6872    -6.9227     2.7432 H       
  66 H66           10.9937    -7.3815     1.1694 H       
  67 H67           12.7531    -7.1724     1.3397 H       
  68 H68            6.8467     3.1925     0.5894 H       
@<TRIPOS>BOND
   1    1    2 ar
   2    1    6 ar
   3    1   40 1
   4    2    3 ar
   5    2   41 1
   6    3    4 ar
   7    3   42 1
   8    4    5 ar
   9    5    6 ar
  10    5    7 1
  11    6   33 1
  12    7    8 1
  13    8    9 ar
  14    8   13 ar
  15    9   10 ar
  16    9   43 1
  17   10   11 ar
  18   10   44 1
  19   11   12 ar
  20   11   14 1
  21   12   13 ar
  22   12   37 1
  23   13   45 1
  24   14   15 am
  25   14   16 1
  26   15   17 2
  27   15   18 1
  28   16   25 1
  29   16   46 1
  30   16   47 1
  31   18   19 1
  32   18   23 1
  33   18   48 1
  34   19   20 1
  35   19   49 1
  36   19   50 1
  37   20   21 1
  38   20   51 1
  39   20   52 1
  40   21   22 1
  41   21   24 1
  42   21   53 1
  43   22   23 1
  44   22   54 1
  45   22   55 1
  46   23   56 1
  47   23   57 1
  48   24   58 1
  49   24   59 1
  50   24   60 1
  51   25   26 ar
  52   25   30 ar
  53   26   27 ar
  54   26   61 1
  55   27   28 ar
  56   27   31 1
  57   28   29 ar
  58   28   62 1
  59   29   30 ar
  60   29   63 1
  61   30   64 1
  62   31   32 1
  63   32   65 1
  64   32   66 1
  65   32   67 1
  66   33   34 1
  67   33   35 1
  68   33   36 1
  69   37   38 2
  70   37   39 1
  71   39   68 1

#	End of record

