#	Name: ASD01920008
#	Creating user name:	WinNT
#	Creation time:	15. 06. 2019 20:11

#	Modifying user name:	WinNT
#	Modification time:	15. 06. 2019 20:11

#	Program:	/corina/corina34_cracker 3.40 0067  02.08.2006

@<TRIPOS>MOLECULE
ASD01920008
  41   44    0    0    0
SMALL
NO_CHARGES


@<TRIPOS>ATOM
   1 N1            -0.0174     1.3623     0.1049 N.am    
   2 C2             0.0022    -0.0038    -0.0001 C.2     
   3 C3            -1.1513    -0.7274    -0.0880 C.2     
   4 C4            -2.3852    -0.0661    -0.0712 C.2     
   5 C5            -2.3960     1.3363     0.0369 C.2     
   6 C6            -1.1845     2.0415     0.1306 C.2     
   7 O7            -3.6721    -0.4337    -0.1353 O.3     
   8 N8            -4.4363     0.5027    -0.0841 N.2     
   9 C9            -3.8261     1.6592     0.0221 C.2     
  10 C10           -4.4485     3.0029     0.1087 C.ar    
  11 O11           -1.1864     3.2570     0.2249 O.2     
  12 C12            1.2468     2.0968     0.1967 C.3     
  13 C13            1.3008    -0.7088    -0.0190 C.ar    
  14 C14            1.5188    -1.7997     0.8245 C.ar    
  15 C15            2.7332    -2.4536     0.8014 C.ar    
  16 C16            3.7341    -2.0304    -0.0552 C.ar    
  17 C17            3.5249    -0.9496    -0.8934 C.ar    
  18 C18            2.3131    -0.2904    -0.8846 C.ar    
  19 C19           -5.6176     3.2778    -0.5964 C.ar    
  20 C20           -6.1942     4.5346    -0.5110 C.ar    
  21 C21           -5.6066     5.5159     0.2752 C.ar    
  22 C22           -4.4460     5.2435     0.9753 C.ar    
  23 C23           -3.8679     3.9925     0.9006 C.ar    
  24 O24           -7.3351     4.8068    -1.1975 O.3     
  25 C25           -7.8745     6.1232    -1.0634 C.3     
  26 H26           -1.1126    -1.8035    -0.1704 H       
  27 H27            1.6348     2.2790    -0.8055 H       
  28 H28            1.0781     3.0490     0.6996 H       
  29 H29            1.9682     1.5089     0.7643 H       
  30 H30            0.7385    -2.1308     1.4938 H       
  31 H31            2.9033    -3.2974     1.4536 H       
  32 H32            4.6831    -2.5458    -0.0693 H       
  33 H33            4.3106    -0.6241    -1.5591 H       
  34 H34            2.1511     0.5531    -1.5394 H       
  35 H35           -6.0733     2.5134    -1.2083 H       
  36 H36           -6.0572     6.4953     0.3399 H       
  37 H37           -3.9927     6.0106     1.5857 H       
  38 H38           -2.9613     3.7828     1.4487 H       
  39 H39           -8.1100     6.3144    -0.0164 H       
  40 H40           -7.1428     6.8528    -1.4103 H       
  41 H41           -8.7823     6.2065    -1.6610 H       
@<TRIPOS>BOND
   1    1    2 1
   2    1   12 1
   3    1    6 am
   4    2    3 2
   5    2   13 1
   6    3    4 1
   7    3   26 1
   8    4    5 2
   9    4    7 1
  10    5    6 1
  11    5    9 1
  12    6   11 2
  13    7    8 1
  14    8    9 2
  15    9   10 1
  16   10   19 ar
  17   10   23 ar
  18   12   27 1
  19   12   28 1
  20   12   29 1
  21   13   14 ar
  22   13   18 ar
  23   14   15 ar
  24   14   30 1
  25   15   16 ar
  26   15   31 1
  27   16   17 ar
  28   16   32 1
  29   17   18 ar
  30   17   33 1
  31   18   34 1
  32   19   20 ar
  33   19   35 1
  34   20   21 ar
  35   20   24 1
  36   21   22 ar
  37   21   36 1
  38   22   23 ar
  39   22   37 1
  40   23   38 1
  41   24   25 1
  42   25   39 1
  43   25   40 1
  44   25   41 1

#	End of record

