#	Name: ASD08830202
#	Creating user name:	WinNT
#	Creation time:	15. 06. 2019 21:20

#	Modifying user name:	WinNT
#	Modification time:	15. 06. 2019 21:20

#	Program:	/corina/corina34_cracker 3.40 0067  02.08.2006

@<TRIPOS>MOLECULE
ASD08830202
  53   56    0    0    0
SMALL
NO_CHARGES


@<TRIPOS>ATOM
   1 C1            -2.7162     0.8377     1.4680 C.ar    
   2 C2            -1.9551    -0.4123     1.3120 C.2     
   3 C3            -1.5127    -0.8591    -0.0575 C.3     
   4 C4            -0.8769    -2.2474     0.0396 C.3     
   5 N5            -0.3288    -2.6277    -1.2692 N.3     
   6 O6            -1.6841    -1.0826     2.2854 O.2     
   7 C7            -3.0333     1.6095     0.3334 C.ar    
   8 C8             0.2970    -3.9567    -1.2123 C.3     
   9 C9             0.8004    -4.3380    -2.6070 C.3     
  10 O10            1.7050    -3.3330    -3.0730 O.3     
  11 C11            1.1282    -2.0262    -3.1414 C.3     
  12 C12            0.6281    -1.6215    -1.7521 C.3     
  13 C13           -3.1212     1.2446     2.7314 C.ar    
  14 C14           -3.8468     2.4369     2.8732 C.ar    
  15 C15           -4.1547     3.2073     1.7222 C.ar    
  16 C16           -3.7343     2.7649     0.4529 C.ar    
  17 C17           -4.2725     2.8768     4.1407 C.ar    
  18 C18           -4.9747     4.0332     4.2582 C.ar    
  19 C19           -5.2861     4.8047     3.1254 C.ar    
  20 C20           -4.8802     4.3994     1.8647 C.ar    
  21 C21           -6.0529     6.0597     3.2809 C.2     
  22 O22           -6.3248     6.7306     2.3045 O.2     
  23 N23           -6.4501     6.4594     4.5052 N.am    
  24 C24           -1.9213    -3.2501     0.4574 C.ar    
  25 C25           -1.9961    -3.6621     1.7749 C.ar    
  26 C26           -2.9542    -4.5820     2.1581 C.ar    
  27 C27           -3.8378    -5.0895     1.2240 C.ar    
  28 C28           -3.7636    -4.6769    -0.0932 C.ar    
  29 C29           -2.8083    -3.7538    -0.4756 C.ar    
  30 H30           -2.3753    -0.9003    -0.7226 H       
  31 H31           -0.7830    -0.1521    -0.4523 H       
  32 H32           -0.0751    -2.2289     0.7778 H       
  33 H33           -2.7144     1.2777    -0.6437 H       
  34 H34            1.1355    -3.9347    -0.5162 H       
  35 H35           -0.4362    -4.6902    -0.8769 H       
  36 H36            1.3156    -5.2972    -2.5584 H       
  37 H37           -0.0449    -4.4124    -3.2912 H       
  38 H38            1.8805    -1.3135    -3.4793 H       
  39 H39            0.2925    -2.0334    -3.8412 H       
  40 H40            0.1366    -0.6504    -1.8108 H       
  41 H41            1.4719    -1.5622    -1.0646 H       
  42 H42           -2.8800     0.6478     3.5987 H       
  43 H43           -3.9665     3.3483    -0.4258 H       
  44 H44           -4.0409     2.2942     5.0202 H       
  45 H45           -5.2982     4.3640     5.2341 H       
  46 H46           -5.1218     4.9961     0.9975 H       
  47 H47           -6.2331     5.9239     5.2843 H       
  48 H48           -6.9531     7.2825     4.6071 H       
  49 H49           -1.3058    -3.2656     2.5047 H       
  50 H50           -3.0121    -4.9043     3.1872 H       
  51 H51           -4.5858    -5.8087     1.5233 H       
  52 H52           -4.4537    -5.0737    -0.8231 H       
  53 H53           -2.7504    -3.4314    -1.5047 H       
@<TRIPOS>BOND
   1    1    2 1
   2    1   13 ar
   3    1    7 ar
   4    2    3 1
   5    2    6 2
   6    3    4 1
   7    3   30 1
   8    3   31 1
   9    4    5 1
  10    4   24 1
  11    4   32 1
  12    5    8 1
  13    5   12 1
  14    7   16 ar
  15    7   33 1
  16    8    9 1
  17    8   34 1
  18    8   35 1
  19    9   10 1
  20    9   36 1
  21    9   37 1
  22   10   11 1
  23   11   12 1
  24   11   38 1
  25   11   39 1
  26   12   40 1
  27   12   41 1
  28   13   14 ar
  29   13   42 1
  30   14   15 ar
  31   14   17 ar
  32   15   16 ar
  33   15   20 ar
  34   16   43 1
  35   17   18 ar
  36   17   44 1
  37   18   19 ar
  38   18   45 1
  39   19   20 ar
  40   19   21 1
  41   20   46 1
  42   21   22 2
  43   21   23 am
  44   23   47 1
  45   23   48 1
  46   24   25 ar
  47   24   29 ar
  48   25   26 ar
  49   25   49 1
  50   26   27 ar
  51   26   50 1
  52   27   28 ar
  53   27   51 1
  54   28   29 ar
  55   28   52 1
  56   29   53 1

#	End of record

