#	Name: ASD03330104
#	Creating user name:	WinNT
#	Creation time:	15. 06. 2019 20:36

#	Modifying user name:	WinNT
#	Modification time:	15. 06. 2019 20:36

#	Program:	/corina/corina34_cracker 3.40 0067  02.08.2006

@<TRIPOS>MOLECULE
ASD03330104
  47   47    0    0    0
SMALL
NO_CHARGES


@<TRIPOS>ATOM
   1 N1            -0.2628     0.8642     0.0814 N.am    
   2 C2             0.0421    -0.5707     0.1641 C.3     
   3 C3             1.0444    -0.7972     1.3002 C.3     
   4 C4             2.2690     0.0939     1.0800 C.3     
   5 C5             1.8425     1.5635     1.0979 C.3     
   6 C6             0.8492     1.8168    -0.0405 C.3     
   7 C7            -1.5384     1.2980     0.1112 C.2     
   8 O8            -2.4495     0.4998     0.2072 O.2     
   9 O9            -1.8033     2.6159     0.0346 O.3     
  10 N10            3.2469    -0.1451     2.1498 N.3     
  11 C11            4.4662     0.6454     1.9347 C.3     
  12 C12            5.4128     0.4561     3.1217 C.3     
  13 C13            6.6828     1.2794     2.8976 C.3     
  14 F14            6.3468     2.6323     2.7802 F       
  15 F15            7.5483     1.1063     3.9830 F       
  16 F16            7.3145     0.8523     1.7247 F       
  17 C17            2.8934    -0.2314    -0.2524 C.2     
  18 N18            3.7078    -1.2986    -0.3724 N.am    
  19 O19            2.6632     0.4671    -1.2168 O.2     
  20 C20           -3.2000     3.0108     0.0726 C.3     
  21 C21           -3.8272     2.5412     1.3868 C.3     
  22 C22           -3.3021     4.5343    -0.0254 C.3     
  23 C23           -3.9425     2.3733    -1.1034 C.3     
  24 H24           -0.8727    -1.1275     0.3674 H       
  25 H25            0.4753    -0.9071    -0.7779 H       
  26 H26            0.5778    -0.5454     2.2526 H       
  27 H27            1.3523    -1.8427     1.3106 H       
  28 H28            1.3684     1.7931     2.0522 H       
  29 H29            2.7185     2.1982     0.9644 H       
  30 H30            1.3483     1.6751    -0.9992 H       
  31 H31            0.4670     2.8353     0.0278 H       
  32 H32            2.8462     0.0476     3.0556 H       
  33 H33            4.9584     0.3126     1.0208 H       
  34 H34            4.2045     1.6995     1.8432 H       
  35 H35            4.9206     0.7888     4.0356 H       
  36 H36            5.6746    -0.5981     3.2132 H       
  37 H37            3.8351    -1.8985     0.3792 H       
  38 H38            4.1666    -1.4668    -1.2103 H       
  39 H39           -3.2982     2.9954     2.2246 H       
  40 H40           -4.8757     2.8377     1.4153 H       
  41 H41           -3.7545     1.4559     1.4566 H       
  42 H42           -2.8552     4.8689    -0.9616 H       
  43 H43           -4.3506     4.8308     0.0032 H       
  44 H44           -2.7731     4.9885     0.8124 H       
  45 H45           -3.8698     1.2879    -1.0336 H       
  46 H46           -4.9910     2.6698    -1.0748 H       
  47 H47           -3.4957     2.7078    -2.0396 H       
@<TRIPOS>BOND
   1    1    2 1
   2    1    6 1
   3    1    7 am
   4    2    3 1
   5    2   24 1
   6    2   25 1
   7    3    4 1
   8    3   26 1
   9    3   27 1
  10    4    5 1
  11    4   10 1
  12    4   17 1
  13    5    6 1
  14    5   28 1
  15    5   29 1
  16    6   30 1
  17    6   31 1
  18    7    8 2
  19    7    9 1
  20    9   20 1
  21   10   11 1
  22   10   32 1
  23   11   12 1
  24   11   33 1
  25   11   34 1
  26   12   13 1
  27   12   35 1
  28   12   36 1
  29   13   14 1
  30   13   15 1
  31   13   16 1
  32   17   18 am
  33   17   19 2
  34   18   37 1
  35   18   38 1
  36   20   21 1
  37   20   23 1
  38   20   22 1
  39   21   39 1
  40   21   40 1
  41   21   41 1
  42   22   42 1
  43   22   43 1
  44   22   44 1
  45   23   45 1
  46   23   46 1
  47   23   47 1

#	End of record

