#	Name: ASD01230562
#	Creating user name:	WinNT
#	Creation time:	15. 06. 2019 19:14

#	Modifying user name:	WinNT
#	Modification time:	15. 06. 2019 19:14

#	Program:	/corina/corina34_cracker 3.40 0067  02.08.2006

@<TRIPOS>MOLECULE
ASD01230562
  37   39    0    0    0
SMALL
NO_CHARGES


@<TRIPOS>ATOM
   1 C1            -0.0169     1.3980     0.0097 C.ar    
   2 C2             0.0021    -0.0041     0.0020 C.ar    
   3 C3             1.2328    -0.6606    -0.0133 C.ar    
   4 C4             2.3881     0.1050    -0.0203 C.ar    
   5 C5             2.2901     1.4832    -0.0119 C.ar    
   6 N6             1.1151     2.0834     0.0026 N.ar    
   7 N7            -1.2295     2.0706     0.0191 N.pl3   
   8 O8            -3.2966    -1.1704     0.0276 O.3     
   9 N9            -2.4751    -0.2783     0.0248 N.2     
  10 C10           -1.2641    -0.7755     0.0105 C.2     
  11 N11           -1.3812    -2.1203     0.0041 N.2     
  12 C12           -2.6785    -2.3616     0.0151 C.2     
  13 C13           -3.3271    -3.6901     0.0143 C.ar    
  14 C14           -4.7191    -3.7905     0.0269 C.ar    
  15 C15           -5.3180    -5.0334     0.0262 C.ar    
  16 C16           -4.5418    -6.1786     0.0129 C.ar    
  17 C17           -3.1614    -6.0861     0.0004 C.ar    
  18 C18           -2.5500    -4.8493    -0.0048 C.ar    
  19 C19           -5.2029    -7.5329     0.0126 C.3     
  20 C20           -4.7907    -8.3014    -1.2445 C.3     
  21 C21           -4.7663    -8.3138     1.2538 C.3     
  22 H22            1.2842    -1.7393    -0.0192 H       
  23 H23            3.3571    -0.3719    -0.0318 H       
  24 H24            3.1906     2.0793    -0.0174 H       
  25 H25           -2.0611     1.5712     0.0203 H       
  26 H26           -1.2462     3.0404     0.0245 H       
  27 H27           -5.3260    -2.8973     0.0377 H       
  28 H28           -6.3950    -5.1124     0.0363 H       
  29 H29           -2.5613    -6.9839    -0.0096 H       
  30 H30           -1.4724    -4.7784    -0.0191 H       
  31 H31           -6.2858    -7.4086     0.0238 H       
  32 H32           -5.1018    -7.7451    -2.1287 H       
  33 H33           -3.7079    -8.4257    -1.2557 H       
  34 H34           -5.2689    -9.2809    -1.2447 H       
  35 H35           -5.0600    -7.7663     2.1494 H       
  36 H36           -5.2445    -9.2933     1.2536 H       
  37 H37           -3.6835    -8.4380     1.2426 H       
@<TRIPOS>BOND
   1    1    2 ar
   2    1    6 ar
   3    1    7 1
   4    2    3 ar
   5    2   10 1
   6    3    4 ar
   7    3   22 1
   8    4    5 ar
   9    4   23 1
  10    5    6 ar
  11    5   24 1
  12    7   25 1
  13    7   26 1
  14    8    9 1
  15    8   12 1
  16    9   10 2
  17   10   11 1
  18   11   12 2
  19   12   13 1
  20   13   14 ar
  21   13   18 ar
  22   14   15 ar
  23   14   27 1
  24   15   16 ar
  25   15   28 1
  26   16   17 ar
  27   16   19 1
  28   17   18 ar
  29   17   29 1
  30   18   30 1
  31   19   20 1
  32   19   21 1
  33   19   31 1
  34   20   32 1
  35   20   33 1
  36   20   34 1
  37   21   35 1
  38   21   36 1
  39   21   37 1

#	End of record

