#	Name: ASD01885407
#	Creating user name:	WinNT
#	Creation time:	15. 06. 2019 19:49

#	Modifying user name:	WinNT
#	Modification time:	15. 06. 2019 19:49

#	Program:	/corina/corina34_cracker 3.40 0067  02.08.2006

@<TRIPOS>MOLECULE
ASD01885407
  29   31    0    0    0
SMALL
NO_CHARGES


@<TRIPOS>ATOM
   1 C1            -0.0168     1.3901     0.0097 C.ar    
   2 C2             0.0021    -0.0041     0.0020 C.ar    
   3 N3            -1.1146    -0.7758     0.0187 N.2     
   4 C4            -2.1895    -0.5678    -0.6484 C.2     
   5 C5            -2.3490     0.6303    -1.5464 C.3     
   6 C6            -2.2788     1.8703    -0.6911 C.2     
   7 N7            -1.1833     2.1456     0.0182 N.am    
   8 C8             1.1902     2.0914     0.0019 C.ar    
   9 C9             2.3955     1.4234    -0.0175 C.ar    
  10 C10            2.4205     0.0335    -0.0305 C.ar    
  11 C11            1.2374    -0.6752    -0.0205 C.ar    
  12 C12           -3.3007    -1.5292    -0.5334 C.ar    
  13 C13           -3.1998    -2.6615     0.2903 C.ar    
  14 C14           -4.2855    -3.5173     0.3462 C.ar    
  15 N15           -5.3689    -3.2560    -0.3609 N.ar    
  16 N16           -5.4692    -2.2239    -1.1157 N.ar    
  17 C17           -4.4973    -1.3422    -1.2378 C.ar    
  18 O18           -3.2277     2.6245    -0.6478 O.2     
  19 Br19           4.0161     2.3979    -0.0271 Br      
  20 O20            3.6094    -0.6262    -0.0531 O.3     
  21 H21           -1.5470     0.6465    -2.2844 H       
  22 H22           -3.3138     0.5859    -2.0515 H       
  23 H23           -1.2022     2.9337     0.5835 H       
  24 H24            1.1792     3.1713     0.0109 H       
  25 H25            1.2600    -1.7549    -0.0308 H       
  26 H26           -2.3043    -2.8582     0.8611 H       
  27 H27           -4.2464    -4.3994     0.9681 H       
  28 H28           -4.6193    -0.4852    -1.8837 H       
  29 H29            3.9656    -0.8250     0.8237 H       
@<TRIPOS>BOND
   1    1    2 ar
   2    1    8 ar
   3    1    7 1
   4    2    3 1
   5    2   11 ar
   6    3    4 2
   7    4    5 1
   8    4   12 1
   9    5    6 1
  10    5   21 1
  11    5   22 1
  12    6    7 am
  13    6   18 2
  14    7   23 1
  15    8    9 ar
  16    8   24 1
  17    9   10 ar
  18    9   19 1
  19   10   11 ar
  20   10   20 1
  21   11   25 1
  22   12   13 ar
  23   12   17 ar
  24   13   14 ar
  25   13   26 1
  26   14   15 ar
  27   14   27 1
  28   15   16 ar
  29   16   17 ar
  30   17   28 1
  31   20   29 1

#	End of record

