#	Name: ASD03240385
#	Creating user name:	WinNT
#	Creation time:	15. 06. 2019 20:34

#	Modifying user name:	WinNT
#	Modification time:	15. 06. 2019 20:34

#	Program:	/corina/corina34_cracker 3.40 0067  02.08.2006

@<TRIPOS>MOLECULE
ASD03240385
  66   71    0    0    0
SMALL
NO_CHARGES


@<TRIPOS>ATOM
   1 C1            -0.1353     0.7481     1.9154 C.3     
   2 C2            -0.0548    -0.3632     0.9008 C.2     
   3 N3             1.0290    -1.0945     0.8215 N.2     
   4 C4             1.1244    -2.0848    -0.0690 C.2     
   5 C5             2.3617    -2.8969    -0.1377 C.ar    
   6 C6             3.6064    -2.2717    -0.2061 C.ar    
   7 C7             4.7553    -3.0334    -0.2693 C.ar    
   8 C8             4.6741    -4.4144    -0.2650 C.ar    
   9 C9             3.4422    -5.0403    -0.1978 C.ar    
  10 C10            2.2866    -4.2894    -0.1284 C.ar    
  11 C11            5.9327    -5.2404    -0.3343 C.3     
  12 N12            6.4177    -5.5090     1.0260 N.3     
  13 C13            7.4995    -6.5019     1.0126 C.3     
  14 C14            7.8792    -6.8640     2.4502 C.3     
  15 C15            8.3303    -5.6001     3.1875 C.3     
  16 C16            7.2035    -4.5643     3.1451 C.3     
  17 C17            6.8433    -4.2689     1.6874 C.3     
  18 N18            8.6397    -5.9303     4.5809 N.am    
  19 C19            7.7800    -6.4508     5.4768 C.2     
  20 O20            6.6151    -6.7232     5.2539 O.2     
  21 N21            8.4048    -6.6247     6.6567 N.am    
  22 C22            9.7243    -6.1996     6.5212 C.ar    
  23 C23            9.8749    -5.7647     5.2029 C.ar    
  24 C24           11.1000    -5.2794     4.7716 C.ar    
  25 C25           12.1662    -5.2281     5.6478 C.ar    
  26 C26           12.0170    -5.6593     6.9549 C.ar    
  27 C27           10.8018    -6.1485     7.3924 C.ar    
  28 C28            0.0677    -2.3590    -0.9332 C.2     
  29 N29           -1.0722    -1.6061    -0.8653 N.am    
  30 C30           -1.1506    -0.6131     0.0455 C.2     
  31 O31           -2.1578     0.0704     0.1230 O.2     
  32 C32            0.1770    -3.4538    -1.9156 C.ar    
  33 C33            1.3002    -3.5462    -2.7419 C.ar    
  34 C34            1.3954    -4.5726    -3.6582 C.ar    
  35 C35            0.3821    -5.5096    -3.7604 C.ar    
  36 C36           -0.7334    -5.4242    -2.9458 C.ar    
  37 C37           -0.8395    -4.4070    -2.0206 C.ar    
  38 H38            0.7936     0.7887     2.4843 H       
  39 H39           -0.2891     1.6977     1.4028 H       
  40 H40           -0.9685     0.5619     2.5930 H       
  41 H41            3.6711    -1.1937    -0.2098 H       
  42 H42            5.7198    -2.5505    -0.3227 H       
  43 H43            3.3850    -6.1188    -0.1952 H       
  44 H44            1.3254    -4.7790    -0.0756 H       
  45 H45            5.7208    -6.1839    -0.8374 H       
  46 H46            6.6950    -4.6951    -0.8908 H       
  47 H47            7.1642    -7.3972     0.4891 H       
  48 H48            8.3677    -6.0861     0.5014 H       
  49 H49            7.0151    -7.2926     2.9579 H       
  50 H50            8.6928    -7.5893     2.4400 H       
  51 H51            9.2178    -5.1929     2.7030 H       
  52 H52            6.3287    -4.9567     3.6637 H       
  53 H53            7.5342    -3.6466     3.6314 H       
  54 H54            7.7146    -3.8636     1.1730 H       
  55 H55            6.0315    -3.5423     1.6539 H       
  56 H56            8.0043    -6.9844     7.4636 H       
  57 H57           11.2203    -4.9425     3.7525 H       
  58 H58           13.1207    -4.8504     5.3119 H       
  59 H59           12.8555    -5.6165     7.6343 H       
  60 H60           10.6891    -6.4836     8.4129 H       
  61 H61           -1.8159    -1.7859    -1.4615 H       
  62 H62            2.0915    -2.8155    -2.6635 H       
  63 H63            2.2626    -4.6450    -4.2977 H       
  64 H64            0.4621    -6.3112    -4.4798 H       
  65 H65           -1.5204    -6.1589    -3.0314 H       
  66 H66           -1.7104    -4.3418    -1.3852 H       
@<TRIPOS>BOND
   1    1    2 1
   2    1   38 1
   3    1   39 1
   4    1   40 1
   5    2    3 2
   6    2   30 1
   7    3    4 1
   8    4    5 1
   9    4   28 2
  10    5    6 ar
  11    5   10 ar
  12    6    7 ar
  13    6   41 1
  14    7    8 ar
  15    7   42 1
  16    8    9 ar
  17    8   11 1
  18    9   10 ar
  19    9   43 1
  20   10   44 1
  21   11   12 1
  22   11   45 1
  23   11   46 1
  24   12   13 1
  25   12   17 1
  26   13   14 1
  27   13   47 1
  28   13   48 1
  29   14   15 1
  30   14   49 1
  31   14   50 1
  32   15   16 1
  33   15   18 1
  34   15   51 1
  35   16   17 1
  36   16   52 1
  37   16   53 1
  38   17   54 1
  39   17   55 1
  40   18   19 am
  41   18   23 1
  42   19   20 2
  43   19   21 am
  44   21   22 1
  45   21   56 1
  46   22   23 ar
  47   22   27 ar
  48   23   24 ar
  49   24   25 ar
  50   24   57 1
  51   25   26 ar
  52   25   58 1
  53   26   27 ar
  54   26   59 1
  55   27   60 1
  56   28   29 1
  57   28   32 1
  58   29   30 am
  59   29   61 1
  60   30   31 2
  61   32   33 ar
  62   32   37 ar
  63   33   34 ar
  64   33   62 1
  65   34   35 ar
  66   34   63 1
  67   35   36 ar
  68   35   64 1
  69   36   37 ar
  70   36   65 1
  71   37   66 1

#	End of record

