#	Name: ASD06140014
#	Creating user name:	WinNT
#	Creation time:	15. 06. 2019 21:05

#	Modifying user name:	WinNT
#	Modification time:	15. 06. 2019 21:05

#	Program:	/corina/corina34_cracker 3.40 0067  02.08.2006

@<TRIPOS>MOLECULE
ASD06140014
  34   35    0    0    0
SMALL
NO_CHARGES


@<TRIPOS>ATOM
   1 C1             0.6187     1.4740    -0.2615 C.ar    
   2 C2             0.5631     0.0968    -0.1614 C.ar    
   3 C3             1.7073    -0.6569    -0.3451 C.ar    
   4 C4             2.9083    -0.0341    -0.6297 C.ar    
   5 C5             2.9662     1.3430    -0.7309 C.ar    
   6 C6             1.8209     2.0989    -0.5466 C.ar    
   7 C7             1.6456    -2.1586    -0.2346 C.3     
   8 S8             1.2812    -2.8686    -1.8592 S.3     
   9 C9             1.3985    -4.5845    -1.4764 C.2     
  10 N10            1.5921    -4.9851    -0.1828 N.pl3   
  11 C11            1.2940    -5.5359    -2.4940 C.2     
  12 C12            0.4952    -5.3242     0.6157 C.ar    
  13 C13            0.6880    -5.7049     1.9375 C.ar    
  14 C14           -0.7896    -5.2755     0.0902 C.ar    
  15 C15           -1.8709    -5.6110     0.8810 C.ar    
  16 C16           -1.6753    -5.9954     2.1958 C.ar    
  17 C17           -0.3970    -6.0393     2.7236 C.ar    
  18 F18            1.8762     3.4452    -0.6456 F       
  19 Br19          -3.1585    -6.4534     3.2757 Br      
  20 C20            1.3894    -6.9305    -2.1830 C.1     
  21 N21            1.4650    -8.0368    -1.9362 N.1     
  22 C22            1.0914    -5.1166    -3.8482 C.1     
  23 N23            0.9307    -4.7840    -4.9224 N.1     
  24 H24           -0.2762     2.0624    -0.1220 H       
  25 H25           -0.3746    -0.3908     0.0610 H       
  26 H26            3.8016    -0.6239    -0.7728 H       
  27 H27            3.9046     1.8294    -0.9529 H       
  28 H28            2.6044    -2.5365     0.1203 H       
  29 H29            0.8616    -2.4392     0.4687 H       
  30 H30            2.4901    -5.0339     0.1806 H       
  31 H31            1.6856    -5.7398     2.3499 H       
  32 H32           -0.9429    -4.9752    -0.9358 H       
  33 H33           -2.8701    -5.5729     0.4731 H       
  34 H34           -0.2473    -6.3401     3.7501 H       
@<TRIPOS>BOND
   1    1    2 ar
   2    1    6 ar
   3    1   24 1
   4    2    3 ar
   5    2   25 1
   6    3    4 ar
   7    3    7 1
   8    4    5 ar
   9    4   26 1
  10    5    6 ar
  11    5   27 1
  12    6   18 1
  13    7    8 1
  14    7   28 1
  15    7   29 1
  16    8    9 1
  17    9   10 1
  18    9   11 2
  19   10   12 1
  20   10   30 1
  21   11   20 1
  22   11   22 1
  23   12   13 ar
  24   12   14 ar
  25   13   17 ar
  26   13   31 1
  27   14   15 ar
  28   14   32 1
  29   15   16 ar
  30   15   33 1
  31   16   17 ar
  32   16   19 1
  33   17   34 1
  34   20   21 3
  35   22   23 3

#	End of record

