#	Name: ASD04880089
#	Creating user name:	WinNT
#	Creation time:	15. 06. 2019 20:52

#	Modifying user name:	WinNT
#	Modification time:	15. 06. 2019 20:52

#	Program:	/corina/corina34_cracker 3.40 0067  02.08.2006

@<TRIPOS>MOLECULE
ASD04880089
  45   47    0    0    0
SMALL
NO_CHARGES


@<TRIPOS>ATOM
   1 C1            -0.0144     1.2118     0.0087 C.2     
   2 O2             0.0434    -0.0026     0.0316 O.2     
   3 N3             1.1186     1.9394    -0.0485 N.am    
   4 N4             1.1864     3.3238    -0.1914 N.2     
   5 C5             2.3867     3.7918    -0.2204 C.2     
   6 C6             3.3752     2.6555    -0.0861 C.3     
   7 C7             2.4860     1.4022     0.0362 C.3     
   8 C8             2.7414     5.2154    -0.3635 C.ar    
   9 C9             1.7363     6.1795    -0.4805 C.ar    
  10 C10            2.0744     7.5127    -0.6139 C.ar    
  11 C11            3.4149     7.8934    -0.6316 C.ar    
  12 C12            4.4126     6.9369    -0.5159 C.ar    
  13 C13            4.0829     5.6049    -0.3767 C.ar    
  14 O14            3.7454     9.2054    -0.7629 O.3     
  15 C15            5.1380     9.5257    -0.7734 C.3     
  16 O16            1.0990     8.4534    -0.7285 O.3     
  17 C17           -0.2533     7.9921    -0.7031 C.3     
  18 C18           -1.3274     1.8898     0.0374 C.ar    
  19 C19           -2.5031     1.1435    -0.0541 C.ar    
  20 C20           -3.7293     1.7856    -0.0260 C.ar    
  21 C21           -3.7875     3.1679     0.0923 C.ar    
  22 C22           -2.6237     3.9086     0.1826 C.ar    
  23 C23           -1.3962     3.2784     0.1619 C.ar    
  24 O24           -4.8768     1.0626    -0.1149 O.3     
  25 C25           -6.1063     1.7900    -0.0795 C.3     
  26 F26           -6.1975     2.4932     1.1265 F       
  27 F27           -6.1460     2.6910    -1.1489 F       
  28 H28            4.0095     2.5940    -0.9703 H       
  29 H29            3.9804     2.7795     0.8120 H       
  30 H30            2.6454     0.9085     0.9948 H       
  31 H31            2.6798     0.7149    -0.7873 H       
  32 H32            0.6978     5.8832    -0.4671 H       
  33 H33            5.4502     7.2363    -0.5308 H       
  34 H34            4.8617     4.8626    -0.2823 H       
  35 H35            5.2623    10.6030    -0.8836 H       
  36 H36            5.5925     9.2015     0.1628 H       
  37 H37            5.6216     9.0170    -1.6073 H       
  38 H38           -0.4163     7.2991    -1.5285 H       
  39 H39           -0.4461     7.4838     0.2416 H       
  40 H40           -0.9289     8.8416    -0.8031 H       
  41 H41           -2.4565     0.0685    -0.1468 H       
  42 H42           -4.7454     3.6662     0.1136 H       
  43 H43           -2.6755     4.9835     0.2738 H       
  44 H44           -0.4891     3.8597     0.2376 H       
  45 H45           -6.9421     1.0948    -0.1588 H       
@<TRIPOS>BOND
   1    1    2 2
   2    1    3 am
   3    1   18 1
   4    3    4 1
   5    3    7 1
   6    4    5 2
   7    5    6 1
   8    5    8 1
   9    6    7 1
  10    6   28 1
  11    6   29 1
  12    7   30 1
  13    7   31 1
  14    8    9 ar
  15    8   13 ar
  16    9   10 ar
  17    9   32 1
  18   10   11 ar
  19   10   16 1
  20   11   12 ar
  21   11   14 1
  22   12   13 ar
  23   12   33 1
  24   13   34 1
  25   14   15 1
  26   15   35 1
  27   15   36 1
  28   15   37 1
  29   16   17 1
  30   17   38 1
  31   17   39 1
  32   17   40 1
  33   18   19 ar
  34   18   23 ar
  35   19   20 ar
  36   19   41 1
  37   20   21 ar
  38   20   24 1
  39   21   22 ar
  40   21   42 1
  41   22   23 ar
  42   22   43 1
  43   23   44 1
  44   24   25 1
  45   25   26 1
  46   25   27 1
  47   25   45 1

#	End of record

