#	Name: ASD01840198
#	Creating user name:	WinNT
#	Creation time:	15. 06. 2019 19:37

#	Modifying user name:	WinNT
#	Modification time:	15. 06. 2019 19:37

#	Program:	/corina/corina34_cracker 3.40 0067  02.08.2006

@<TRIPOS>MOLECULE
ASD01840198
  32   34    0    0    0
SMALL
NO_CHARGES


@<TRIPOS>ATOM
   1 C1            -0.1662     1.0977     0.2339 C.ar    
   2 C2            -0.1064    -0.2725     0.1046 C.ar    
   3 N3             1.0636    -0.8866     0.0640 N.ar    
   4 N4             2.1766    -0.2578     0.1407 N.ar    
   5 C5             1.0512     1.8108     0.3203 C.ar    
   6 C6             2.6089     3.5674     0.5102 C.2     
   7 C7             1.2953     3.2346     0.4589 C.2     
   8 C8             2.2394     1.0697     0.2679 C.ar    
   9 S9             3.6252     2.1444     0.3906 S.3     
  10 N10            0.2745     4.1728     0.5318 N.pl3   
  11 C11            3.1114     4.9337     0.6466 C.2     
  12 N12            4.4390     5.1625     0.6883 N.am    
  13 O13            2.3306     5.8648     0.7224 O.2     
  14 C14            4.9424     6.5314     0.8249 C.3     
  15 C15           -1.4904     1.8159     0.2759 C.3     
  16 C16           -1.3790    -1.0740     0.0095 C.3     
  17 C17            6.3314     6.7153     1.4394 C.3     
  18 C18            6.1219     6.9419    -0.0591 C.3     
  19 H19            0.4604     5.1070     0.3482 H       
  20 H20           -0.6245     3.8941     0.7662 H       
  21 H21            5.0611     4.4207     0.6279 H       
  22 H22            4.1904     7.2892     1.0449 H       
  23 H23           -1.7784     1.9868     1.3131 H       
  24 H24           -1.4014     2.7725    -0.2389 H       
  25 H25           -2.2493     1.2077    -0.2164 H       
  26 H26           -1.6707    -1.1700    -1.0364 H       
  27 H27           -1.2169    -2.0648     0.4339 H       
  28 H28           -2.1700    -0.5670     0.5621 H       
  29 H29            6.4934     7.5941     2.0635 H       
  30 H30            6.8707     5.8177     1.7422 H       
  31 H31            6.5232     6.1933    -0.7423 H       
  32 H32            6.1459     7.9698    -0.4209 H       
@<TRIPOS>BOND
   1    1    2 ar
   2    1    5 ar
   3    1   15 1
   4    2    3 ar
   5    2   16 1
   6    3    4 ar
   7    4    8 ar
   8    5    8 ar
   9    5    7 1
  10    6    7 2
  11    6    9 1
  12    6   11 1
  13    7   10 1
  14    8    9 1
  15   10   19 1
  16   10   20 1
  17   11   12 am
  18   11   13 2
  19   12   14 1
  20   12   21 1
  21   14   17 1
  22   14   18 1
  23   14   22 1
  24   15   23 1
  25   15   24 1
  26   15   25 1
  27   16   26 1
  28   16   27 1
  29   16   28 1
  30   17   18 1
  31   17   29 1
  32   17   30 1
  33   18   31 1
  34   18   32 1

#	End of record

