#	Name: ASD01209365
#	Creating user name:	WinNT
#	Creation time:	15. 06. 2019 19:11

#	Modifying user name:	WinNT
#	Modification time:	15. 06. 2019 19:11

#	Program:	/corina/corina34_cracker 3.40 0067  02.08.2006

@<TRIPOS>MOLECULE
ASD01209365
  45   46    0    0    0
SMALL
NO_CHARGES


@<TRIPOS>ATOM
   1 C1             0.9623     1.5639    -1.4060 C.2     
   2 C2             0.7548     0.0788    -1.2560 C.3     
   3 O3             1.7460     2.1399    -0.6891 O.2     
   4 O4             0.2805     2.2459    -2.3398 O.3     
   5 S5             1.8166    -0.5487     0.0742 S.3     
   6 N6             2.6110    -3.0823    -0.4112 N.am    
   7 C7             1.4529    -2.3258     0.0826 C.3     
   8 C8             1.2210    -2.8037     1.4972 C.2     
   9 C9             2.1477    -3.7212     1.7547 C.2     
  10 C10            3.0098    -3.8992     0.5818 C.2     
  11 O11            3.9470    -4.6714     0.5158 O.2     
  12 C12            2.2906    -4.4670     3.0564 C.3     
  13 C13            0.1435    -2.3296     2.4381 C.3     
  14 C14            3.2163    -2.9728    -1.7408 C.3     
  15 C15            4.2925    -1.9182    -1.7175 C.ar    
  16 C16            5.5940    -2.2674    -1.4072 C.ar    
  17 C17            6.5845    -1.2992    -1.3853 C.ar    
  18 C18            6.2663     0.0243    -1.6762 C.ar    
  19 C19            4.9605     0.3674    -1.9863 C.ar    
  20 C20            3.9776    -0.6050    -2.0119 C.ar    
  21 O21            7.2350     0.9785    -1.6556 O.3     
  22 C22            6.8356     2.3153    -1.9644 C.3     
  23 O23            7.8649    -1.6409    -1.0798 O.3     
  24 C24            8.1178    -3.0175    -0.7918 C.3     
  25 H25           -0.2888    -0.1194    -1.0120 H       
  26 H26            1.0105    -0.4200    -2.1908 H       
  27 H27            0.4472     3.1966    -2.3981 H       
  28 H28            0.5780    -2.5330    -0.5336 H       
  29 H29            1.6966    -5.3801     3.0191 H       
  30 H30            3.3384    -4.7214     3.2162 H       
  31 H31            1.9402    -3.8388     3.8754 H       
  32 H32           -0.7571    -2.9251     2.2888 H       
  33 H33            0.4855    -2.4397     3.4672 H       
  34 H34           -0.0772    -1.2809     2.2389 H       
  35 H35            3.6529    -3.9313    -2.0214 H       
  36 H36            2.4516    -2.6956    -2.4664 H       
  37 H37            5.8382    -3.2949    -1.1815 H       
  38 H38            4.7109     1.3936    -2.2123 H       
  39 H39            2.9608    -0.3370    -2.2581 H       
  40 H40            6.4157     2.3460    -2.9698 H       
  41 H41            6.0844     2.6450    -1.2467 H       
  42 H42            7.7020     2.9746    -1.9123 H       
  43 H43            9.1753    -3.1529    -0.5650 H       
  44 H44            7.5200    -3.3250     0.0663 H       
  45 H45            7.8510    -3.6247    -1.6568 H       
@<TRIPOS>BOND
   1    1    2 1
   2    1    3 2
   3    1    4 1
   4    2    5 1
   5    2   25 1
   6    2   26 1
   7    4   27 1
   8    5    7 1
   9    6    7 1
  10    6   10 am
  11    6   14 1
  12    7    8 1
  13    7   28 1
  14    8    9 2
  15    8   13 1
  16    9   10 1
  17    9   12 1
  18   10   11 2
  19   12   29 1
  20   12   30 1
  21   12   31 1
  22   13   32 1
  23   13   33 1
  24   13   34 1
  25   14   15 1
  26   14   35 1
  27   14   36 1
  28   15   16 ar
  29   15   20 ar
  30   16   17 ar
  31   16   37 1
  32   17   18 ar
  33   17   23 1
  34   18   19 ar
  35   18   21 1
  36   19   20 ar
  37   19   38 1
  38   20   39 1
  39   21   22 1
  40   22   40 1
  41   22   41 1
  42   22   42 1
  43   23   24 1
  44   24   43 1
  45   24   44 1
  46   24   45 1

#	End of record

