#	Name: ASD06090004
#	Creating user name:	WinNT
#	Creation time:	15. 06. 2019 21:05

#	Modifying user name:	WinNT
#	Modification time:	15. 06. 2019 21:05

#	Program:	/corina/corina34_cracker 3.40 0067  02.08.2006

@<TRIPOS>MOLECULE
ASD06090004
  72   76    0    0    0
SMALL
NO_CHARGES


@<TRIPOS>ATOM
   1 N1            -0.6390     1.2763    -0.4201 N.2     
   2 C2             1.7411     1.1669     0.0674 C.2     
   3 O3             2.6010    -1.0134     0.1675 O.2     
   4 F4             2.0200    -8.9903    -5.7269 F       
   5 C5             3.2973    -8.7277    -5.2202 C.3     
   6 F6             3.3881    -9.2114    -3.9106 F       
   7 F7             4.2552    -9.3615    -6.0189 F       
   8 C8             3.5474    -7.2183    -5.2248 C.3     
   9 C9             3.5865    -6.7199    -6.6465 C.ar    
  10 C10            2.4817    -6.8731    -7.4632 C.ar    
  11 C11            2.5175    -6.4159    -8.7672 C.ar    
  12 C12            3.6579    -5.8051    -9.2545 C.ar    
  13 C13            4.7625    -5.6515    -8.4376 C.ar    
  14 C14            4.7250    -6.1044    -7.1321 C.ar    
  15 C15            2.4208    -6.5123    -4.4676 C.3     
  16 C16            2.7415    -5.0451    -4.3434 C.2     
  17 O17            3.8139    -4.6245    -4.7228 O.2     
  18 N18            1.8366    -4.2003    -3.8105 N.am    
  19 C19            0.5356    -4.6958    -3.3408 C.3     
  20 C20            0.3315    -4.2472    -1.8904 C.3     
  21 C21            2.1347    -2.7673    -3.6828 C.3     
  22 C22            1.9091    -2.3446    -2.2277 C.3     
  23 C23            0.4943    -2.7280    -1.8029 C.3     
  24 O24           -0.4556    -2.0970    -2.6640 O.3     
  25 C25            0.2571    -2.2721    -0.3618 C.3     
  26 N26            0.4128    -0.8178    -0.2777 N.am    
  27 C27           -0.6725    -0.0198    -0.4733 C.2     
  28 C28            1.6325    -0.2976    -0.0073 C.2     
  29 N29            2.6942     2.0372     0.2952 N.2     
  30 N30            2.2440     3.2406     0.2452 N.pl3   
  31 C31            3.0628     4.4370     0.4559 C.3     
  32 C32            0.9082     3.2630    -0.0298 C.2     
  33 C33            0.5109     1.9417    -0.1590 C.2     
  34 C34            0.0533     4.4597    -0.1626 C.ar    
  35 C35            0.1496     5.4973     0.7672 C.ar    
  36 C36           -0.6521     6.6122     0.6371 C.ar    
  37 C37           -1.5504     6.7039    -0.4114 C.ar    
  38 C38           -2.4228     7.9251    -0.5470 C.3     
  39 N39           -1.7353     8.9292    -1.3698 N.3     
  40 C40           -1.6510     5.6796    -1.3363 C.ar    
  41 C41           -0.8511     4.5617    -1.2219 C.ar    
  42 H42            4.5000    -7.0064    -4.7392 H       
  43 H43            1.5908    -7.3503    -7.0825 H       
  44 H44            1.6547    -6.5363    -9.4055 H       
  45 H45            3.6860    -5.4483   -10.2734 H       
  46 H46            5.6535    -5.1746    -8.8184 H       
  47 H47            5.5865    -5.9808    -6.4927 H       
  48 H48            1.4846    -6.6348    -5.0123 H       
  49 H49            2.3224    -6.9482    -3.4734 H       
  50 H50           -0.2584    -4.2863    -3.9652 H       
  51 H51            0.5190    -5.7845    -3.3923 H       
  52 H52           -0.6696    -4.5254    -1.5609 H       
  53 H53            1.0721    -4.7297    -1.2526 H       
  54 H54            3.1729    -2.5839    -3.9598 H       
  55 H55            1.4740    -2.1970    -4.3356 H       
  56 H56            2.6320    -2.8486    -1.5862 H       
  57 H57            2.0336    -1.2653    -2.1389 H       
  58 H58           -0.4099    -1.1311    -2.6593 H       
  59 H59           -0.7519    -2.5478    -0.0549 H       
  60 H60            0.9811    -2.7536     0.2955 H       
  61 H61           -1.6192    -0.4943    -0.6853 H       
  62 H62            3.4731     4.7691    -0.4977 H       
  63 H63            2.4464     5.2288     0.8817 H       
  64 H64            3.8781     4.2033     1.1406 H       
  65 H65            0.8498     5.4267     1.5864 H       
  66 H66           -0.5787     7.4153     1.3554 H       
  67 H67           -3.3639     7.6484    -1.0223 H       
  68 H68           -2.6230     8.3401     0.4409 H       
  69 H69           -1.4812     8.5476    -2.2686 H       
  70 H70           -2.3004     9.7584    -1.4756 H       
  71 H71           -2.3545     5.7575    -2.1521 H       
  72 H72           -0.9274     3.7649    -1.9470 H       
@<TRIPOS>BOND
   1    1   27 2
   2    1   33 1
   3    2   33 1
   4    2   28 1
   5    2   29 2
   6    3   28 2
   7    4    5 1
   8    5    8 1
   9    5    6 1
  10    5    7 1
  11    8   15 1
  12    8    9 1
  13    8   42 1
  14    9   14 ar
  15    9   10 ar
  16   10   11 ar
  17   10   43 1
  18   11   12 ar
  19   11   44 1
  20   12   45 1
  21   12   13 ar
  22   13   46 1
  23   13   14 ar
  24   14   47 1
  25   15   16 1
  26   15   48 1
  27   15   49 1
  28   16   17 2
  29   16   18 am
  30   18   21 1
  31   18   19 1
  32   19   20 1
  33   19   50 1
  34   19   51 1
  35   20   23 1
  36   20   52 1
  37   20   53 1
  38   21   22 1
  39   21   54 1
  40   21   55 1
  41   22   23 1
  42   22   56 1
  43   22   57 1
  44   23   24 1
  45   23   25 1
  46   24   58 1
  47   25   26 1
  48   25   59 1
  49   25   60 1
  50   26   27 1
  51   26   28 am
  52   27   61 1
  53   29   30 1
  54   30   32 1
  55   30   31 1
  56   31   62 1
  57   31   63 1
  58   31   64 1
  59   32   33 2
  60   32   34 1
  61   34   35 ar
  62   34   41 ar
  63   35   36 ar
  64   35   65 1
  65   36   37 ar
  66   36   66 1
  67   37   38 1
  68   37   40 ar
  69   38   39 1
  70   38   67 1
  71   38   68 1
  72   39   69 1
  73   39   70 1
  74   40   71 1
  75   40   41 ar
  76   41   72 1

#	End of record

