#	Name: ASD01811917
#	Creating user name:	WinNT
#	Creation time:	15. 06. 2019 19:27

#	Modifying user name:	WinNT
#	Modification time:	15. 06. 2019 19:27

#	Program:	/corina/corina34_cracker 3.40 0067  02.08.2006

@<TRIPOS>MOLECULE
ASD01811917
  64   68    0    0    0
SMALL
NO_CHARGES


@<TRIPOS>ATOM
   1 C1            -0.0166     1.3751     0.0096 C.ar    
   2 C2             0.0021    -0.0041     0.0020 C.ar    
   3 C3             1.2068    -0.6866    -0.0127 C.ar    
   4 C4             2.4015     0.0058    -0.0199 C.ar    
   5 C5             2.4005     1.3940    -0.0124 C.ar    
   6 C6             1.1822     2.0874     0.0020 C.ar    
   7 C7             1.1684     3.5670     0.0096 C.2     
   8 C8             0.8633     4.2640     1.1703 C.2     
   9 C9             0.8600     5.6644     1.1416 C.2     
  10 N10            1.1493     6.3184     0.0016 N.am    
  11 C11            1.4489     5.6442    -1.1401 C.2     
  12 C12            1.4715     4.2949    -1.1641 C.2     
  13 C13            1.1409     7.7833    -0.0092 C.3     
  14 C14            0.1088     8.2799    -1.0236 C.3     
  15 C15            0.1000     9.8098    -1.0349 C.3     
  16 C16            1.4870    10.3249    -1.4247 C.3     
  17 C17            2.5191     9.8284    -0.4103 C.3     
  18 C18            2.5279     8.2984    -0.3990 C.3     
  19 N19            3.6036     2.0942    -0.0192 N.pl3   
  20 O20            0.5934     6.2936     2.1536 O.2     
  21 O21           -1.1866     7.7988    -0.6596 O.3     
  22 C22            4.8748     1.3661    -0.0343 C.3     
  23 C23            6.0168     2.3494    -0.0391 C.ar    
  24 C24            6.5495     2.7925     1.1580 C.ar    
  25 C25            7.5956     3.6931     1.1593 C.ar    
  26 C26            8.1147     4.1556    -0.0478 C.ar    
  27 C27            7.5744     3.7060    -1.2505 C.ar    
  28 C28            6.5322     2.8011    -1.2405 C.ar    
  29 C29            9.2395     5.1247    -0.0524 C.2     
  30 C30            9.8408     5.6567    -1.1556 C.2     
  31 N31           10.8125     6.4884    -0.7293 N.pl3   
  32 N32           10.8172     6.4747     0.6707 N.2     
  33 C33            9.8759     5.6666     1.0812 C.2     
  34 C34           11.7091     7.2711    -1.5836 C.3     
  35 H35           -0.9589     1.9028     0.0169 H       
  36 H36           -0.9273    -0.5542     0.0079 H       
  37 H37            1.2120    -1.7666    -0.0182 H       
  38 H38            3.3374    -0.5330    -0.0310 H       
  39 H39            0.6314     3.7343     2.0825 H       
  40 H40            1.6766     6.1963    -2.0400 H       
  41 H41            1.7161     3.7731    -2.0774 H       
  42 H42            0.8819     8.1525     0.9831 H       
  43 H43            0.3679     7.9107    -2.0159 H       
  44 H44           -0.6353    10.1636    -1.7576 H       
  45 H45           -0.1590    10.1790    -0.0426 H       
  46 H46            1.7460     9.9557    -2.4170 H       
  47 H47            1.4807    11.4149    -1.4328 H       
  48 H48            3.5072    10.1953    -0.6880 H       
  49 H49            2.2600    10.1976     0.5820 H       
  50 H50            3.2632     7.9447     0.3237 H       
  51 H51            2.7869     7.9292    -1.3913 H       
  52 H52            3.6002     3.0641    -0.0140 H       
  53 H53           -1.8921     8.0757    -1.2602 H       
  54 H54            4.9425     0.7349     0.8517 H       
  55 H55            4.9268     0.7444    -0.9282 H       
  56 H56            6.1461     2.4336     2.0933 H       
  57 H57            8.0106     4.0387     2.0945 H       
  58 H58            7.9730     4.0618    -2.1891 H       
  59 H59            6.1155     2.4485    -2.1724 H       
  60 H60            9.5847     5.4491    -2.1841 H       
  61 H61            9.6307     5.4497     2.1103 H       
  62 H62           11.2608     8.2438    -1.7859 H       
  63 H63           12.6644     7.4095    -1.0773 H       
  64 H64           11.8691     6.7423    -2.5232 H       
@<TRIPOS>BOND
   1    1    2 ar
   2    1    6 ar
   3    1   35 1
   4    2    3 ar
   5    2   36 1
   6    3    4 ar
   7    3   37 1
   8    4    5 ar
   9    4   38 1
  10    5    6 ar
  11    5   19 1
  12    6    7 1
  13    7    8 2
  14    7   12 1
  15    8    9 1
  16    8   39 1
  17    9   10 am
  18    9   20 2
  19   10   11 1
  20   10   13 1
  21   11   12 2
  22   11   40 1
  23   12   41 1
  24   13   14 1
  25   13   18 1
  26   13   42 1
  27   14   15 1
  28   14   21 1
  29   14   43 1
  30   15   16 1
  31   15   44 1
  32   15   45 1
  33   16   17 1
  34   16   46 1
  35   16   47 1
  36   17   18 1
  37   17   48 1
  38   17   49 1
  39   18   50 1
  40   18   51 1
  41   19   22 1
  42   19   52 1
  43   21   53 1
  44   22   23 1
  45   22   54 1
  46   22   55 1
  47   23   24 ar
  48   23   28 ar
  49   24   25 ar
  50   24   56 1
  51   25   26 ar
  52   25   57 1
  53   26   27 ar
  54   26   29 1
  55   27   28 ar
  56   27   58 1
  57   28   59 1
  58   29   30 2
  59   29   33 1
  60   30   31 1
  61   30   60 1
  62   31   32 1
  63   31   34 1
  64   32   33 2
  65   33   61 1
  66   34   62 1
  67   34   63 1
  68   34   64 1

#	End of record

