#	Name: ASD09380010
#	Creating user name:	WinNT
#	Creation time:	15. 06. 2019 21:21

#	Modifying user name:	WinNT
#	Modification time:	15. 06. 2019 21:21

#	Program:	/corina/corina34_cracker 3.40 0067  02.08.2006

@<TRIPOS>MOLECULE
ASD09380010
  62   65    0    0    0
SMALL
NO_CHARGES


@<TRIPOS>ATOM
   1 Na1            0.0000     0.0000     0.0000 Du      
   2 C2            10.1097    22.2685     8.4146 C.3     
   3 O3            10.0980    20.8467     8.5571 O.3     
   4 C4             8.8861    20.2356     8.5403 C.ar    
   5 C5             8.8117    18.8583     8.6799 C.ar    
   6 C6             7.5593    18.2430     8.6608 C.ar    
   7 C7             6.4267    19.0508     8.5002 C.ar    
   8 F8             5.1923    18.5023     8.4757 F       
   9 C9             6.5887    20.4158     8.3677 C.ar    
  10 N10            7.7900    20.9620     8.3961 N.ar    
  11 C11            7.4311    16.7721     8.8062 C.ar    
  12 C12            8.2062    15.9218     8.0202 C.ar    
  13 C13            8.0839    14.5538     8.1586 C.ar    
  14 C14            7.1940    14.0253     9.0754 C.ar    
  15 C15            7.0652    12.5310     9.2216 C.3     
  16 C16            5.9211    12.0219     8.3356 C.3     
  17 C17            5.7456    10.5229     8.5911 C.3     
  18 C18            7.0870     9.8373     8.5313 C.ar    
  19 C19            7.1262     8.4638     8.3602 C.ar    
  20 C20            8.3377     7.8023     8.3052 C.ar    
  21 C21            9.5184     8.5122     8.4212 C.ar    
  22 C22            9.4855     9.8815     8.5899 C.ar    
  23 C23            8.2675    10.5512     8.6440 C.ar    
  24 O24            8.2758    11.9005     8.8010 O.3     
  25 C25           10.8404     7.7910     8.3641 C.3     
  26 H26           11.6404     8.5118     8.1950 H       
  27 C27           11.0816     7.0625     9.6877 C.3     
  28 H28           11.9851     6.4578     9.6102 H       
  29 C29            9.8872     6.1576     9.9968 C.3     
  30 C30           11.2463     8.0724    10.7941 C.2     
  31 O31           10.9420     7.7789    11.9377 O.co2   
  32 O32           11.6840     9.1829    10.5457 O.co2   
  33 C33           10.8184     6.7757     7.2198 C.3     
  34 C34           11.6080     7.1194     5.9551 C.3     
  35 C35           12.1207     6.0363     6.9063 C.3     
  36 C36            6.4205    14.8651     9.8605 C.ar    
  37 F37            5.5530    14.3432    10.7551 F       
  38 C38            6.5394    16.2364     9.7333 C.ar    
  39 H39           11.1381    22.6283     8.4449 H       
  40 H40            9.6571    22.5419     7.4615 H       
  41 H41            9.5427    22.7199     9.2288 H       
  42 H42            9.7095    18.2704     8.8013 H       
  43 H43            5.7202    21.0456     8.2435 H       
  44 H44            8.9016    16.3326     7.3032 H       
  45 H45            8.6844    13.8948     7.5491 H       
  46 H46            6.8633    12.2801    10.2630 H       
  47 H47            5.0000    12.5478     8.5868 H       
  48 H48            6.1661    12.1895     7.2868 H       
  49 H49            5.3048    10.3721     9.5766 H       
  50 H50            5.0879    10.1001     7.8317 H       
  51 H51            6.2052     7.9070     8.2697 H       
  52 H52            8.3626     6.7309     8.1719 H       
  53 H53           10.4085    10.4349     8.6809 H       
  54 H54            9.6830     5.5192     9.1373 H       
  55 H55           10.1159     5.5377    10.8637 H       
  56 H56            9.0119     6.7713    10.2097 H       
  57 H57            9.8854     6.2258     7.0970 H       
  58 H58           11.1943     6.7957     5.0000 H       
  59 H59           12.1431     8.0689     5.9383 H       
  60 H60           12.9931     6.2731     7.5154 H       
  61 H61           12.0444     5.0000     6.5770 H       
  62 H62            5.9396    16.8910    10.3481 H       
@<TRIPOS>BOND
   1    2    3 1
   2    2   39 1
   3    2   40 1
   4    2   41 1
   5    3    4 1
   6    4   10 ar
   7    4    5 ar
   8    5    6 ar
   9    5   42 1
  10    6    7 ar
  11    6   11 1
  12    7    8 1
  13    7    9 ar
  14    9   10 ar
  15    9   43 1
  16   11   38 ar
  17   11   12 ar
  18   12   13 ar
  19   12   44 1
  20   13   14 ar
  21   13   45 1
  22   14   15 1
  23   14   36 ar
  24   15   24 1
  25   15   16 1
  26   15   46 1
  27   16   17 1
  28   16   47 1
  29   16   48 1
  30   17   18 1
  31   17   49 1
  32   17   50 1
  33   18   23 ar
  34   18   19 ar
  35   19   20 ar
  36   19   51 1
  37   20   21 ar
  38   20   52 1
  39   21   22 ar
  40   21   25 1
  41   22   23 ar
  42   22   53 1
  43   23   24 1
  44   25   26 1
  45   25   27 1
  46   25   33 1
  47   27   28 1
  48   27   29 1
  49   27   30 1
  50   29   54 1
  51   29   55 1
  52   29   56 1
  53   30   31 ar
  54   30   32 ar
  55   33   35 1
  56   33   34 1
  57   33   57 1
  58   34   35 1
  59   34   58 1
  60   34   59 1
  61   35   60 1
  62   35   61 1
  63   36   37 1
  64   36   38 ar
  65   38   62 1

#	End of record

