#	Name: ASD01410467
#	Creating user name:	WinNT
#	Creation time:	15. 06. 2019 19:17

#	Modifying user name:	WinNT
#	Modification time:	15. 06. 2019 19:17

#	Program:	/corina/corina34_cracker 3.40 0067  02.08.2006

@<TRIPOS>MOLECULE
ASD01410467
  42   44    0    0    0
SMALL
NO_CHARGES


@<TRIPOS>ATOM
   1 C1            -0.0187     1.5258     0.0104 C.3     
   2 C2             0.0021    -0.0041     0.0020 C.3     
   3 C3             0.7421    -0.5109     1.2415 C.3     
   4 C4             0.7628    -2.0407     1.2331 C.3     
   5 N5             1.5508    -2.5122     0.0916 N.am    
   6 C6             2.8503    -2.2260    -0.1097 C.2     
   7 O7             3.5462    -1.5450     0.6159 O.2     
   8 C8             3.2893    -2.8784    -1.3608 C.ar    
   9 C9             2.1642    -3.5508    -1.8572 C.ar    
  10 C10            1.0742    -3.2948    -0.8946 C.2     
  11 O11           -0.0620    -3.7140    -0.9813 O.2     
  12 C12            2.2944    -4.2691    -3.0584 C.ar    
  13 C13            1.2169    -4.9684    -3.6222 C.ar    
  14 C14            1.3906    -5.6500    -4.7882 C.ar    
  15 C15            2.6277    -5.6625    -5.4312 C.ar    
  16 C16            3.6952    -4.9959    -4.9141 C.ar    
  17 C17            3.5578    -4.2797    -3.7116 C.ar    
  18 N18            4.5926    -3.6185    -3.1857 N.ar    
  19 C19            4.4936    -2.9418    -2.0664 C.ar    
  20 C20            5.7026    -2.2191    -1.5306 C.3     
  21 C21            1.3918    -2.5494     2.5318 C.3     
  22 C22            1.3012    -4.0530     2.5786 C.2     
  23 O23            0.7864    -4.6558     1.6667 O.2     
  24 O24            1.7924    -4.7224     3.6332 O.3     
  25 H25            1.0039     1.9031     0.0027 H       
  26 H26           -0.5459     1.8868    -0.8726 H       
  27 H27           -0.5289     1.8773     0.9072 H       
  28 H28           -1.0205    -0.3814     0.0098 H       
  29 H29            0.5123    -0.3556    -0.8948 H       
  30 H30            1.7647    -0.1336     1.2338 H       
  31 H31            0.2319    -0.1594     2.1383 H       
  32 H32           -0.2567    -2.4175     1.1513 H       
  33 H33            0.2539    -4.9666    -3.1334 H       
  34 H34            0.5597    -6.1879    -5.2202 H       
  35 H35            2.7405    -6.2108    -6.3549 H       
  36 H36            4.6459    -5.0164    -5.4261 H       
  37 H37            5.7278    -1.2060    -1.9321 H       
  38 H38            5.6486    -2.1775    -0.4428 H       
  39 H39            6.6059    -2.7509    -1.8296 H       
  40 H40            2.4382    -2.2470     2.5715 H       
  41 H41            0.8589    -2.1267     3.3835 H       
  42 H42            1.7112    -5.6859     3.6182 H       
@<TRIPOS>BOND
   1    1    2 1
   2    1   25 1
   3    1   26 1
   4    1   27 1
   5    2    3 1
   6    2   28 1
   7    2   29 1
   8    3    4 1
   9    3   30 1
  10    3   31 1
  11    4    5 1
  12    4   21 1
  13    4   32 1
  14    5    6 am
  15    5   10 am
  16    6    7 2
  17    6    8 1
  18    8    9 ar
  19    8   19 ar
  20    9   10 1
  21    9   12 ar
  22   10   11 2
  23   12   13 ar
  24   12   17 ar
  25   13   14 ar
  26   13   33 1
  27   14   15 ar
  28   14   34 1
  29   15   16 ar
  30   15   35 1
  31   16   17 ar
  32   16   36 1
  33   17   18 ar
  34   18   19 ar
  35   19   20 1
  36   20   37 1
  37   20   38 1
  38   20   39 1
  39   21   22 1
  40   21   40 1
  41   21   41 1
  42   22   23 2
  43   22   24 1
  44   24   42 1

#	End of record

