#	Name: ASD01152564
#	Creating user name:	WinNT
#	Creation time:	15. 06. 2019 19:06

#	Modifying user name:	WinNT
#	Modification time:	15. 06. 2019 19:06

#	Program:	/corina/corina34_cracker 3.40 0067  02.08.2006

@<TRIPOS>MOLECULE
ASD01152564
  52   54    0    0    0
SMALL
NO_CHARGES


@<TRIPOS>ATOM
   1 C1             0.0186     1.2117    -0.6109 C.2     
   2 N2            -0.0458    -0.0924    -0.5685 N.2     
   3 N3            -1.1687    -0.7530    -0.0706 N.am    
   4 C4            -2.3221    -0.1177     0.1951 C.2     
   5 C5            -2.4861     1.3425    -0.1555 C.3     
   6 C6            -1.1152     1.9901    -0.0898 C.2     
   7 C7            -3.0599     1.4751    -1.5676 C.3     
   8 O8            -0.9639     3.1046     0.3665 O.2     
   9 C9            -1.0909    -2.1315     0.1609 C.ar    
  10 O10           -3.2359    -0.7191     0.7182 O.2     
  11 C11           -3.3353     2.9268    -1.8637 C.ar    
  12 C12           -2.0860    -2.9729    -0.3167 C.ar    
  13 C13           -0.0147    -2.6586     0.8638 C.ar    
  14 C14            0.0637    -4.0188     1.0926 C.ar    
  15 C15           -0.9287    -4.8602     0.6222 C.ar    
  16 C16           -2.0059    -4.3383    -0.0862 C.ar    
  17 C17           -2.3545     3.7126    -2.4379 C.ar    
  18 C18           -4.5713     3.4704    -1.5659 C.ar    
  19 C19           -4.8256     4.8016    -1.8378 C.ar    
  20 C20           -2.6081     5.0465    -2.7103 C.ar    
  21 C21           -3.8443     5.5909    -2.4073 C.ar    
  22 F22           -0.8489    -6.1900     0.8467 F       
  23 F23           -1.6500     5.8157    -3.2721 F       
  24 C24           -4.1221     7.0421    -2.7041 C.3     
  25 F25           -5.4300     7.3549    -2.3183 F       
  26 F26           -3.2221     7.8439    -1.9940 F       
  27 F27           -3.9722     7.2746    -4.0754 F       
  28 O28            1.1127     1.8360    -1.1207 O.3     
  29 C29            2.1706     1.0031    -1.5995 C.3     
  30 N30           -3.0079    -5.1904    -0.5669 N.am    
  31 C31           -2.8885    -5.7814    -1.9021 C.3     
  32 C32           -4.0820    -5.4669     0.1988 C.2     
  33 O33           -4.9924    -6.1305    -0.2505 O.2     
  34 C34           -4.1518    -4.9515     1.6132 C.3     
  35 H35           -3.1532     1.8215     0.5612 H       
  36 H36           -2.3415     1.0869    -2.2896 H       
  37 H37           -3.9879     0.9076    -1.6374 H       
  38 H38           -2.9214    -2.5653    -0.8665 H       
  39 H39            0.7619    -2.0042     1.2315 H       
  40 H40            0.9013    -4.4261     1.6393 H       
  41 H41           -1.3905     3.2868    -2.6739 H       
  42 H42           -5.3387     2.8544    -1.1209 H       
  43 H43           -5.7916     5.2249    -1.6054 H       
  44 H44            2.5412     0.3818    -0.7842 H       
  45 H45            1.7970     0.3659    -2.4010 H       
  46 H46            2.9805     1.6264    -1.9784 H       
  47 H47           -2.2963    -6.6946    -1.8437 H       
  48 H48           -3.8814    -6.0162    -2.2856 H       
  49 H49           -2.3990    -5.0730    -2.5705 H       
  50 H50           -3.2955    -4.3057     1.8073 H       
  51 H51           -5.0727    -4.3842     1.7481 H       
  52 H52           -4.1378    -5.7919     2.3072 H       
@<TRIPOS>BOND
   1    1    2 2
   2    1   28 1
   3    1    6 1
   4    2    3 1
   5    3    4 am
   6    3    9 1
   7    4    5 1
   8    4   10 2
   9    5    6 1
  10    5    7 1
  11    5   35 1
  12    6    8 2
  13    7   11 1
  14    7   36 1
  15    7   37 1
  16    9   12 ar
  17    9   13 ar
  18   11   17 ar
  19   11   18 ar
  20   12   16 ar
  21   12   38 1
  22   13   14 ar
  23   13   39 1
  24   14   15 ar
  25   14   40 1
  26   15   16 ar
  27   15   22 1
  28   16   30 1
  29   17   20 ar
  30   17   41 1
  31   18   19 ar
  32   18   42 1
  33   19   21 ar
  34   19   43 1
  35   20   23 1
  36   20   21 ar
  37   21   24 1
  38   24   25 1
  39   24   26 1
  40   24   27 1
  41   28   29 1
  42   29   44 1
  43   29   45 1
  44   29   46 1
  45   30   31 1
  46   30   32 am
  47   31   47 1
  48   31   48 1
  49   31   49 1
  50   32   33 2
  51   32   34 1
  52   34   50 1
  53   34   51 1
  54   34   52 1

#	End of record

