#	Name: ASD03930155
#	Creating user name:	WinNT
#	Creation time:	15. 06. 2019 20:47

#	Modifying user name:	WinNT
#	Modification time:	15. 06. 2019 20:47

#	Program:	/corina/corina34_cracker 3.40 0067  02.08.2006

@<TRIPOS>MOLECULE
ASD03930155
  43   45    0    0    0
SMALL
NO_CHARGES


@<TRIPOS>ATOM
   1 C1            -0.0189     1.5391     0.0105 C.3     
   2 C2             0.0021    -0.0041     0.0020 C.3     
   3 C3             1.3498    -0.3138    -0.6831 C.3     
   4 C4             2.2240     0.8895    -0.4002 C.ar    
   5 C5             3.5956     1.0371    -0.4861 C.ar    
   6 C6             4.1887     2.2596    -0.1707 C.ar    
   7 C7             3.3888     3.3313     0.2314 C.ar    
   8 C8             2.0225     3.1727     0.3130 C.ar    
   9 C9             1.4369     1.9555    -0.0012 C.ar    
  10 C10            5.6545     2.4194    -0.2609 C.2     
  11 O11            6.3470     1.4847    -0.6106 O.2     
  12 O12            6.2232     3.6017     0.0447 O.3     
  13 N13           -0.7017     2.0447    -1.1829 N.am    
  14 C14           -1.2781     3.2628    -1.1642 C.2     
  15 O15           -1.2314     3.9417    -0.1575 O.2     
  16 O16           -1.9057     3.7275    -2.2610 O.3     
  17 C17           -2.5037     5.0474    -2.1688 C.3     
  18 C18           -3.1558     5.3964    -3.4818 C.ar    
  19 C19           -4.4792     5.0658    -3.7057 C.ar    
  20 C20           -5.0773     5.3859    -4.9102 C.ar    
  21 C21           -4.3521     6.0368    -5.8906 C.ar    
  22 C22           -3.0289     6.3681    -5.6664 C.ar    
  23 C23           -2.4321     6.0519    -4.4603 C.ar    
  24 C24            7.6685     3.6863    -0.0664 C.3     
  25 H25           -0.5099     1.9057     0.9120 H       
  26 H26           -0.0152    -0.3973     1.0185 H       
  27 H27           -0.8292    -0.3996    -0.5817 H       
  28 H28            1.7938    -1.2127    -0.2554 H       
  29 H29            1.2091    -0.4349    -1.7572 H       
  30 H30            4.2090     0.2046    -0.7977 H       
  31 H31            3.8397     4.2812     0.4779 H       
  32 H32            1.4038     4.0015     0.6240 H       
  33 H33           -0.7391     1.5028    -1.9865 H       
  34 H34           -3.2539     5.0520    -1.3780 H       
  35 H35           -1.7308     5.7814    -1.9406 H       
  36 H36           -5.0458     4.5573    -2.9397 H       
  37 H37           -6.1111     5.1270    -5.0854 H       
  38 H38           -4.8192     6.2862    -6.8319 H       
  39 H39           -2.4622     6.8764    -6.4325 H       
  40 H40           -1.3993     6.3141    -4.2837 H       
  41 H41            7.9959     4.6893     0.2075 H       
  42 H42            8.1276     2.9588     0.6029 H       
  43 H43            7.9670     3.4744    -1.0931 H       
@<TRIPOS>BOND
   1    1    2 1
   2    1    9 1
   3    1   13 1
   4    1   25 1
   5    2    3 1
   6    2   26 1
   7    2   27 1
   8    3    4 1
   9    3   28 1
  10    3   29 1
  11    4    5 ar
  12    4    9 ar
  13    5    6 ar
  14    5   30 1
  15    6    7 ar
  16    6   10 1
  17    7    8 ar
  18    7   31 1
  19    8    9 ar
  20    8   32 1
  21   10   11 2
  22   10   12 1
  23   12   24 1
  24   13   14 am
  25   13   33 1
  26   14   15 2
  27   14   16 1
  28   16   17 1
  29   17   18 1
  30   17   34 1
  31   17   35 1
  32   18   19 ar
  33   18   23 ar
  34   19   20 ar
  35   19   36 1
  36   20   21 ar
  37   20   37 1
  38   21   22 ar
  39   21   38 1
  40   22   23 ar
  41   22   39 1
  42   23   40 1
  43   24   41 1
  44   24   42 1
  45   24   43 1

#	End of record

