#	Name: ASD01820206
#	Creating user name:	WinNT
#	Creation time:	15. 06. 2019 19:36

#	Modifying user name:	WinNT
#	Modification time:	15. 06. 2019 19:36

#	Program:	/corina/corina34_cracker 3.40 0067  02.08.2006

@<TRIPOS>MOLECULE
ASD01820206
  60   64    0    0    0
SMALL
NO_CHARGES


@<TRIPOS>ATOM
   1 C1            -0.0168     1.3887     0.0097 C.ar    
   2 C2             0.0021    -0.0041     0.0020 C.ar    
   3 C3             1.1799    -0.6886    -0.0125 C.ar    
   4 C4             2.3921     0.0157    -0.0203 C.ar    
   5 C5             2.3749     1.4318    -0.0130 C.ar    
   6 C6             1.1410     2.1048     0.0025 C.ar    
   7 C7             3.6353    -0.6617    -0.0348 C.ar    
   8 C8             4.8076     0.0745    -0.0417 C.ar    
   9 C9             4.7726     1.4642    -0.0340 C.ar    
  10 C10            3.5895     2.1392    -0.0199 C.ar    
  11 C11            4.2238    -2.8281     1.0455 C.ar    
  12 C12            4.2667    -4.2039     1.0385 C.ar    
  13 C13            3.7675    -4.9124    -0.0561 C.ar    
  14 C14            3.2243    -4.2255    -1.1434 C.ar    
  15 C15            3.1818    -2.8496    -1.1366 C.ar    
  16 C16            3.6810    -2.1411    -0.0420 C.ar    
  17 C17            4.5877    -7.0621    -0.9963 C.ar    
  18 C18            4.6374    -8.4514    -1.0095 C.ar    
  19 C19            3.9259    -9.1905    -0.1134 C.ar    
  20 C20            3.1235    -8.5513     0.8476 C.ar    
  21 C21            3.0617    -7.1367     0.8756 C.ar    
  22 C22            3.8146    -6.3918    -0.0640 C.ar    
  23 C23            2.3794    -9.2911     1.7828 C.ar    
  24 C24            1.6121    -8.6401     2.6997 C.ar    
  25 C25            1.5526    -7.2486     2.7258 C.ar    
  26 C26            2.2603    -6.5004     1.8340 C.ar    
  27 C27            6.1355    -0.6379    -0.0571 C.3     
  28 C28            6.5125    -0.9827    -1.4993 C.3     
  29 N29            7.8069    -1.6772    -1.5144 N.3     
  30 C30            5.3885    -6.2777    -2.0035 C.3     
  31 C31            6.7289    -5.8737    -1.3861 C.3     
  32 N32            7.5096    -5.1091    -2.3679 N.3     
  33 H33           -0.9637     1.9081     0.0170 H       
  34 H34           -0.9303    -0.5491     0.0080 H       
  35 H35            1.1798    -1.7686    -0.0176 H       
  36 H36            1.1116     3.1844     0.0078 H       
  37 H37            5.6996     2.0183    -0.0392 H       
  38 H38            3.5847     3.2192    -0.0141 H       
  39 H39            4.6059    -2.2802     1.8941 H       
  40 H40            4.6869    -4.7354     1.8796 H       
  41 H41            2.8388    -4.7735    -1.9904 H       
  42 H42            2.7623    -2.3182    -1.9780 H       
  43 H43            5.2505    -8.9534    -1.7433 H       
  44 H44            3.9782   -10.2689    -0.1414 H       
  45 H45            2.4160   -10.3705     1.7738 H       
  46 H46            1.0410    -9.2107     3.4171 H       
  47 H47            0.9363    -6.7559     3.4633 H       
  48 H48            2.2049    -5.4223     1.8656 H       
  49 H49            6.8998     0.0089     0.3736 H       
  50 H50            6.0629    -1.5544     0.5285 H       
  51 H51            5.7481    -1.6295    -1.9300 H       
  52 H52            6.5850    -0.0662    -2.0849 H       
  53 H53            8.0782    -1.9158    -2.4564 H       
  54 H54            8.5193    -1.1241    -1.0620 H       
  55 H55            5.5655    -6.8930    -2.8856 H       
  56 H56            4.8359    -5.3828    -2.2896 H       
  57 H57            6.5519    -5.2584    -0.5040 H       
  58 H58            7.2816    -6.7686    -1.1000 H       
  59 H59            6.9914    -4.3084    -2.6974 H       
  60 H60            8.4000    -4.8304    -1.9838 H       
@<TRIPOS>BOND
   1    1    2 ar
   2    1    6 ar
   3    1   33 1
   4    2    3 ar
   5    2   34 1
   6    3    4 ar
   7    3   35 1
   8    4    5 ar
   9    4    7 ar
  10    5    6 ar
  11    5   10 ar
  12    6   36 1
  13    7    8 ar
  14    7   16 1
  15    8    9 ar
  16    8   27 1
  17    9   10 ar
  18    9   37 1
  19   10   38 1
  20   11   12 ar
  21   11   16 ar
  22   11   39 1
  23   12   13 ar
  24   12   40 1
  25   13   14 ar
  26   13   22 1
  27   14   15 ar
  28   14   41 1
  29   15   16 ar
  30   15   42 1
  31   17   18 ar
  32   17   30 1
  33   17   22 ar
  34   18   19 ar
  35   18   43 1
  36   19   20 ar
  37   19   44 1
  38   20   21 ar
  39   20   23 ar
  40   21   22 ar
  41   21   26 ar
  42   23   24 ar
  43   23   45 1
  44   24   25 ar
  45   24   46 1
  46   25   26 ar
  47   25   47 1
  48   26   48 1
  49   27   28 1
  50   27   49 1
  51   27   50 1
  52   28   29 1
  53   28   51 1
  54   28   52 1
  55   29   53 1
  56   29   54 1
  57   30   31 1
  58   30   55 1
  59   30   56 1
  60   31   32 1
  61   31   57 1
  62   31   58 1
  63   32   59 1
  64   32   60 1

#	End of record

