#	Name: ASD01008005
#	Creating user name:	WinNT
#	Creation time:	15. 06. 2019 18:56

#	Modifying user name:	WinNT
#	Modification time:	15. 06. 2019 18:56

#	Program:	/corina/corina34_cracker 3.40 0067  02.08.2006

@<TRIPOS>MOLECULE
ASD01008005
  49   51    0    0    0
SMALL
NO_CHARGES


@<TRIPOS>ATOM
   1 C1             0.5343     1.9265     2.4470 C.2     
   2 C2             0.6986     0.5438     3.0233 C.3     
   3 C3             1.6616     2.5756     1.7587 C.ar    
   4 C4             1.5130     3.8588     1.2224 C.ar    
   5 C5             2.5739     4.4603     0.5794 C.ar    
   6 C6             3.7836     3.7974     0.4635 C.ar    
   7 C7             3.9384     2.5275     0.9910 C.ar    
   8 C8             2.8885     1.9149     1.6425 C.ar    
   9 C9             2.4161     5.8428     0.0009 C.3     
  10 C10            3.7479     6.5480     0.0142 C.ar    
  11 C11            4.2074     7.1787    -1.1269 C.ar    
  12 C12            5.4291     7.8254    -1.1147 C.ar    
  13 C13            6.1910     7.8419     0.0386 C.ar    
  14 C14            5.7311     7.2119     1.1799 C.ar    
  15 C15            4.5074     6.5689     1.1690 C.ar    
  16 C16            1.9163     5.7400    -1.4171 C.ar    
  17 C17            2.7025     5.1445    -2.3856 C.ar    
  18 C18            2.2440     5.0501    -3.6863 C.ar    
  19 C19            0.9991     5.5509    -4.0183 C.ar    
  20 C20            0.2125     6.1456    -3.0496 C.ar    
  21 C21            0.6692     6.2361    -1.7480 C.ar    
  22 S22            1.2247     6.7821     0.9954 S.3     
  23 C23            1.3146     8.4452     0.2767 C.3     
  24 C24            0.4449     9.4020     1.0946 C.3     
  25 N25            0.5177    10.7488     0.5126 N.3     
  26 O26           -0.5283     2.5023     2.5459 O.2     
  27 H27            1.4927     0.5534     3.7699 H       
  28 H28           -0.2355     0.2315     3.4904 H       
  29 H29            0.9574    -0.1535     2.2266 H       
  30 H30            0.5696     4.3770     1.3114 H       
  31 H31            4.6109     4.2737    -0.0416 H       
  32 H32            4.8851     2.0166     0.8963 H       
  33 H33            3.0121     0.9255     2.0576 H       
  34 H34            3.6122     7.1658    -2.0279 H       
  35 H35            5.7884     8.3176    -2.0064 H       
  36 H36            7.1458     8.3466     0.0478 H       
  37 H37            6.3265     7.2245     2.0808 H       
  38 H38            4.1464     6.0799     2.0617 H       
  39 H39            3.6752     4.7532    -2.1262 H       
  40 H40            2.8586     4.5855    -4.4431 H       
  41 H41            0.6412     5.4779    -5.0347 H       
  42 H42           -0.7600     6.5372    -3.3091 H       
  43 H43            0.0530     6.6974    -0.9904 H       
  44 H44            2.3480     8.7917     0.2906 H       
  45 H45            0.9549     8.4165    -0.7519 H       
  46 H46           -0.5885     9.0555     1.0807 H       
  47 H47            0.8046     9.4307     2.1231 H       
  48 H48            0.2505    10.7372    -0.4603 H       
  49 H49           -0.0489    11.3997     1.0354 H       
@<TRIPOS>BOND
   1    1    2 1
   2    1    3 1
   3    1   26 2
   4    2   27 1
   5    2   28 1
   6    2   29 1
   7    3    4 ar
   8    3    8 ar
   9    4    5 ar
  10    4   30 1
  11    5    6 ar
  12    5    9 1
  13    6    7 ar
  14    6   31 1
  15    7    8 ar
  16    7   32 1
  17    8   33 1
  18    9   10 1
  19    9   16 1
  20    9   22 1
  21   10   11 ar
  22   10   15 ar
  23   11   12 ar
  24   11   34 1
  25   12   13 ar
  26   12   35 1
  27   13   14 ar
  28   13   36 1
  29   14   15 ar
  30   14   37 1
  31   15   38 1
  32   16   17 ar
  33   16   21 ar
  34   17   18 ar
  35   17   39 1
  36   18   19 ar
  37   18   40 1
  38   19   20 ar
  39   19   41 1
  40   20   21 ar
  41   20   42 1
  42   21   43 1
  43   22   23 1
  44   23   24 1
  45   23   44 1
  46   23   45 1
  47   24   25 1
  48   24   46 1
  49   24   47 1
  50   25   48 1
  51   25   49 1

#	End of record

