#	Name: ASD00190046
#	Creating user name:	WinNT
#	Creation time:	15. 06. 2019 18:33

#	Modifying user name:	WinNT
#	Modification time:	15. 06. 2019 18:33

#	Program:	/corina/corina34_cracker 3.40 0067  02.08.2006

@<TRIPOS>MOLECULE
ASD00190046
  44   47    0    0    0
SMALL
NO_CHARGES


@<TRIPOS>ATOM
   1 C1            -0.0173     1.4248     0.0099 C.3     
   2 O2             0.0021    -0.0041     0.0020 O.3     
   3 C3             0.6249    -0.6175     1.0400 C.ar    
   4 C4             1.2015     0.1437     2.0501 C.ar    
   5 C5             1.8344    -0.4748     3.1050 C.ar    
   6 C6             1.8962    -1.8699     3.1595 C.ar    
   7 C7             1.3148    -2.6316     2.1421 C.ar    
   8 C8             0.6796    -2.0054     1.0931 C.ar    
   9 C9             2.5738    -2.5369     4.2878 C.2     
  10 O10            3.0794    -1.8726     5.1718 O.2     
  11 N11            2.6324    -3.8824     4.3386 N.am    
  12 C12            3.2699    -4.5099     5.4001 C.ar    
  13 N13            3.8124    -3.7903     6.3597 N.ar    
  14 C14            4.4375    -4.3394     7.4035 C.ar    
  15 C15            4.5526    -5.7095     7.5387 C.ar    
  16 C16            3.9936    -6.5353     6.5464 C.ar    
  17 C17            4.0686    -7.9340     6.6129 C.ar    
  18 C18            3.5082    -8.6837     5.6220 C.ar    
  19 C19            2.8628    -8.0806     4.5456 C.ar    
  20 C20            2.7720    -6.7234     4.4504 C.ar    
  21 C21            3.3310    -5.9211     5.4528 C.ar    
  22 C22            5.0229    -3.4578     8.4425 C.ar    
  23 C23            4.9085    -2.0748     8.3195 C.ar    
  24 C24            5.4596    -1.2646     9.2977 C.ar    
  25 C25            6.1075    -1.8651    10.3674 C.ar    
  26 C26            6.1840    -3.2450    10.4261 C.ar    
  27 N27            5.6466    -3.9928     9.4845 N.ar    
  28 H28            1.0053     1.8021     0.0021 H       
  29 H29           -0.5445     1.7859    -0.8732 H       
  30 H30           -0.5275     1.7763     0.9067 H       
  31 H31            1.1533     1.2218     2.0072 H       
  32 H32            2.2827     0.1174     3.8891 H       
  33 H33            1.3608    -3.7100     2.1804 H       
  34 H34            0.2269    -2.5934     0.3085 H       
  35 H35            2.2291    -4.4124     3.6333 H       
  36 H36            5.0618    -6.1381     8.3892 H       
  37 H37            4.5669    -8.4135     7.4425 H       
  38 H38            3.5658    -9.7610     5.6723 H       
  39 H39            2.4274    -8.6977     3.7736 H       
  40 H40            2.2683    -6.2702     3.6094 H       
  41 H41            4.3974    -1.6408     7.4729 H       
  42 H42            5.3871    -0.1892     9.2293 H       
  43 H43            6.5482    -1.2610    11.1466 H       
  44 H44            6.6880    -3.7157    11.2573 H       
@<TRIPOS>BOND
   1    1    2 1
   2    1   28 1
   3    1   29 1
   4    1   30 1
   5    2    3 1
   6    3    8 ar
   7    3    4 ar
   8    4    5 ar
   9    4   31 1
  10    5    6 ar
  11    5   32 1
  12    6    7 ar
  13    6    9 1
  14    7    8 ar
  15    7   33 1
  16    8   34 1
  17    9   10 2
  18    9   11 am
  19   11   12 1
  20   11   35 1
  21   12   21 ar
  22   12   13 ar
  23   13   14 ar
  24   14   15 ar
  25   14   22 1
  26   15   16 ar
  27   15   36 1
  28   16   21 ar
  29   16   17 ar
  30   17   18 ar
  31   17   37 1
  32   18   19 ar
  33   18   38 1
  34   19   20 ar
  35   19   39 1
  36   20   21 ar
  37   20   40 1
  38   22   27 ar
  39   22   23 ar
  40   23   24 ar
  41   23   41 1
  42   24   25 ar
  43   24   42 1
  44   25   26 ar
  45   25   43 1
  46   26   27 ar
  47   26   44 1

#	End of record

