#	Name: ASD03092482
#	Creating user name:	WinNT
#	Creation time:	15. 06. 2019 20:32

#	Modifying user name:	WinNT
#	Modification time:	15. 06. 2019 20:32

#	Program:	/corina/corina34_cracker 3.40 0067  02.08.2006

@<TRIPOS>MOLECULE
ASD03092482
  55   57    0    0    0
SMALL
NO_CHARGES


@<TRIPOS>ATOM
   1 C1            -0.3108     1.5246    -0.5257 C.2     
   2 C2            -0.3500     0.0319    -0.7286 C.3     
   3 C3             1.0782    -0.5051    -0.8419 C.3     
   4 O4             0.7546     2.1022    -0.4765 O.2     
   5 N5            -1.4597     2.2186    -0.4044 N.am    
   6 C6            -1.0494    -0.6265     0.4623 C.3     
   7 C7            -1.4216     3.6698    -0.2071 C.3     
   8 S8            -5.0963     5.2003    -0.5981 S.3     
   9 C9            -4.7073     4.7003     0.9897 C.2     
  10 N10           -3.5017     4.2176     1.0275 N.2     
  11 C11           -2.8285     4.1996    -0.1023 C.2     
  12 C12           -3.5042     4.6965    -1.1596 C.2     
  13 N13           -5.5547     4.7963     2.0784 N.3     
  14 C14           -4.8107     5.1526     3.2953 C.3     
  15 C15           -5.7921     5.3065     4.4602 C.3     
  16 O16           -6.5345     4.0940     4.6150 O.3     
  17 C17           -7.2717     3.7174     3.4488 C.3     
  18 C18           -6.3053     3.5474     2.2736 C.3     
  19 C19           -4.0702     6.4729     3.0732 C.3     
  20 C20           -2.6372     6.0428    -4.5566 C.ar    
  21 C21           -3.1238     5.9913    -3.2684 C.ar    
  22 C22           -2.9987     4.7993    -2.5424 C.ar    
  23 C23           -2.3797     3.7077    -3.1661 C.ar    
  24 C24           -1.9221     3.8483    -4.4583 C.ar    
  25 N25           -2.0605     4.9901    -5.1063 N.ar    
  26 C26           -1.2541     2.6826    -5.1410 C.3     
  27 C27           -2.7706     7.3165    -5.3510 C.3     
  28 H28           -0.8975    -0.1962    -1.6431 H       
  29 H29            1.6258    -0.2770     0.0726 H       
  30 H30            1.0499    -1.5848    -0.9887 H       
  31 H31            1.5765    -0.0360    -1.6903 H       
  32 H32           -2.3119     1.7573    -0.4477 H       
  33 H33           -2.0669    -0.2440     0.5430 H       
  34 H34           -1.0778    -1.7062     0.3155 H       
  35 H35           -0.5019    -0.3984     1.3767 H       
  36 H36           -0.8783     3.8977     0.7099 H       
  37 H37           -0.9190     4.1384    -1.0532 H       
  38 H38           -4.0924     4.3660     3.5261 H       
  39 H39           -5.2396     5.5145     5.3765 H       
  40 H40           -6.4771     6.1287     4.2529 H       
  41 H41           -7.7892     2.7761     3.6336 H       
  42 H42           -7.9996     4.4933     3.2120 H       
  43 H43           -6.8687     3.3162     1.3696 H       
  44 H44           -5.6108     2.7351     2.4881 H       
  45 H45           -4.7915     7.2639     2.8677 H       
  46 H46           -3.5000     6.7246     3.9675 H       
  47 H47           -3.3917     6.3709     2.2263 H       
  48 H48           -3.5940     6.8566    -2.8249 H       
  49 H49           -2.2628     2.7706    -2.6420 H       
  50 H50           -2.0044     2.0883    -5.6624 H       
  51 H51           -0.5213     3.0528    -5.8580 H       
  52 H52           -0.7535     2.0637    -4.3965 H       
  53 H53           -1.8928     7.9412    -5.1861 H       
  54 H54           -2.8519     7.0766    -6.4111 H       
  55 H55           -3.6637     7.8528    -5.0303 H       
@<TRIPOS>BOND
   1    1    2 1
   2    1    4 2
   3    1    5 am
   4    2    3 1
   5    2    6 1
   6    2   28 1
   7    3   29 1
   8    3   30 1
   9    3   31 1
  10    5    7 1
  11    5   32 1
  12    6   33 1
  13    6   34 1
  14    6   35 1
  15    7   11 1
  16    7   36 1
  17    7   37 1
  18    8    9 1
  19    8   12 1
  20    9   10 2
  21    9   13 1
  22   10   11 1
  23   11   12 2
  24   12   22 1
  25   13   14 1
  26   13   18 1
  27   14   15 1
  28   14   19 1
  29   14   38 1
  30   15   16 1
  31   15   39 1
  32   15   40 1
  33   16   17 1
  34   17   18 1
  35   17   41 1
  36   17   42 1
  37   18   43 1
  38   18   44 1
  39   19   45 1
  40   19   46 1
  41   19   47 1
  42   20   21 ar
  43   20   25 ar
  44   20   27 1
  45   21   22 ar
  46   21   48 1
  47   22   23 ar
  48   23   24 ar
  49   23   49 1
  50   24   25 ar
  51   24   26 1
  52   26   50 1
  53   26   51 1
  54   26   52 1
  55   27   53 1
  56   27   54 1
  57   27   55 1

#	End of record

