#	Name: ASD06660154
#	Creating user name:	WinNT
#	Creation time:	15. 06. 2019 21:08

#	Modifying user name:	WinNT
#	Modification time:	15. 06. 2019 21:08

#	Program:	/corina/corina34_cracker 3.40 0067  02.08.2006

@<TRIPOS>MOLECULE
ASD06660154
  79   82    0    0    0
SMALL
NO_CHARGES


@<TRIPOS>ATOM
   1 C1             0.0916     1.5530    -0.1719 C.2     
   2 C2             0.0688     0.0471    -0.1198 C.3     
   3 C3            -0.6476    -0.4953    -1.3582 C.3     
   4 O4             1.1470     2.1412    -0.1818 O.2     
   5 O5            -1.0604     2.2407    -0.2130 O.3     
   6 C6            -0.7791    -1.9924    -1.2471 C.ar    
   7 C7            -1.8946    -2.5441    -0.6442 C.ar    
   8 C8            -2.0183    -3.9157    -0.5407 C.ar    
   9 C9            -1.0205    -4.7413    -1.0430 C.ar    
  10 C10            0.0989    -4.1838    -1.6480 C.ar    
  11 C11            0.2135    -2.8116    -1.7532 C.ar    
  12 N12           -1.1421    -6.1289    -0.9396 N.3     
  13 C13            0.0192    -6.8046    -1.5323 C.3     
  14 C14           -0.2142    -8.3171    -1.5324 C.3     
  15 C15           -0.4274    -8.7958    -0.0937 C.3     
  16 C16           -1.6122    -8.0418     0.5165 C.3     
  17 C17           -1.3383    -6.5374     0.4572 C.3     
  18 C18           -0.7216   -10.2973    -0.0927 C.3     
  19 N19           -0.8073   -10.7772     1.2888 N.pl3   
  20 C20           -1.0685   -12.1185     1.5436 C.ar    
  21 C21           -1.2477   -12.9998     0.4820 C.ar    
  22 C22           -1.5070   -14.3316     0.7500 C.ar    
  23 C23           -1.5788   -14.7392     2.0758 C.ar    
  24 C24           -1.3908   -13.8107     3.0796 C.ar    
  25 N25           -1.1393   -12.5470     2.7943 N.ar    
  26 C26           -1.7076   -15.3183    -0.3713 C.3     
  27 N27            1.4424    -0.4613    -0.0883 N.am    
  28 C28            2.0979    -0.5595     1.0851 C.2     
  29 O29            1.5870    -0.1403     2.1021 O.2     
  30 C30            3.4658    -1.1901     1.1337 C.3     
  31 C31            4.3111    -0.4929     2.2015 C.3     
  32 C32            5.6797    -1.1710     2.2915 C.3     
  33 C33            3.3331    -2.6522     1.4736 C.ar    
  34 C34            3.7977    -3.6114     0.5933 C.ar    
  35 C35            3.6760    -4.9526     0.9051 C.ar    
  36 C36            3.0900    -5.3346     2.0974 C.ar    
  37 C37            2.6262    -4.3754     2.9781 C.ar    
  38 C38            2.7519    -3.0341     2.6683 C.ar    
  39 C39            4.4950     0.9788     1.8258 C.3     
  40 H40           -0.4594    -0.2775     0.7768 H       
  41 H41           -1.6389    -0.0478    -1.4296 H       
  42 H42           -0.0715    -0.2463    -2.2494 H       
  43 H43           -0.9952     3.2049    -0.2456 H       
  44 H44           -2.6699    -1.9016    -0.2536 H       
  45 H45           -2.8896    -4.3459    -0.0695 H       
  46 H46            0.8765    -4.8229    -2.0395 H       
  47 H47            1.0812    -2.3776    -2.2276 H       
  48 H48            0.1572    -6.4583    -2.5566 H       
  49 H49            0.9103    -6.5747    -0.9482 H       
  50 H50           -1.0973    -8.5490    -2.1277 H       
  51 H51            0.6546    -8.8193    -1.9580 H       
  52 H52            0.4703    -8.5992     0.4925 H       
  53 H53           -2.5173    -8.2694    -0.0467 H       
  54 H54           -1.7424    -8.3474     1.5546 H       
  55 H55           -0.4409    -6.3087     1.0320 H       
  56 H56           -2.1864    -5.9970     0.8779 H       
  57 H57           -1.6679   -10.4824    -0.6010 H       
  58 H58            0.0788   -10.8247    -0.6116 H       
  59 H59           -0.6817   -10.1590     2.0256 H       
  60 H60           -1.1854   -12.6487    -0.5374 H       
  61 H61           -1.7801   -15.7720     2.3187 H       
  62 H62           -1.4458   -14.1234     4.1119 H       
  63 H63           -0.7475   -15.7538    -0.6481 H       
  64 H64           -2.3839   -16.1079    -0.0438 H       
  65 H65           -2.1365   -14.8067    -1.2330 H       
  66 H66            1.8800    -0.7273    -0.9121 H       
  67 H67            3.9488    -1.0853     0.1622 H       
  68 H68            3.8075    -0.5616     3.1657 H       
  69 H69            6.2820    -0.6744     3.0522 H       
  70 H70            5.5487    -2.2195     2.5592 H       
  71 H71            6.1834    -1.1023     1.3273 H       
  72 H72            4.2555    -3.3130    -0.3382 H       
  73 H73            4.0383    -5.7020     0.2170 H       
  74 H74            2.9942    -6.3825     2.3407 H       
  75 H75            2.1681    -4.6739     3.9095 H       
  76 H76            2.3928    -2.2846     3.3580 H       
  77 H77            3.5297     1.4843     1.8540 H       
  78 H78            5.1741     1.4527     2.5346 H       
  79 H79            4.9121     1.0480     0.8212 H       
@<TRIPOS>BOND
   1    1    2 1
   2    1    4 2
   3    1    5 1
   4    2    3 1
   5    2   27 1
   6    2   40 1
   7    3    6 1
   8    3   41 1
   9    3   42 1
  10    5   43 1
  11    6    7 ar
  12    6   11 ar
  13    7    8 ar
  14    7   44 1
  15    8    9 ar
  16    8   45 1
  17    9   10 ar
  18    9   12 1
  19   10   11 ar
  20   10   46 1
  21   11   47 1
  22   12   13 1
  23   12   17 1
  24   13   14 1
  25   13   48 1
  26   13   49 1
  27   14   15 1
  28   14   50 1
  29   14   51 1
  30   15   16 1
  31   15   18 1
  32   15   52 1
  33   16   17 1
  34   16   53 1
  35   16   54 1
  36   17   55 1
  37   17   56 1
  38   18   19 1
  39   18   57 1
  40   18   58 1
  41   19   20 1
  42   19   59 1
  43   20   21 ar
  44   20   25 ar
  45   21   22 ar
  46   21   60 1
  47   22   23 ar
  48   22   26 1
  49   23   24 ar
  50   23   61 1
  51   24   25 ar
  52   24   62 1
  53   26   63 1
  54   26   64 1
  55   26   65 1
  56   27   28 am
  57   27   66 1
  58   28   29 2
  59   28   30 1
  60   30   31 1
  61   30   33 1
  62   30   67 1
  63   31   32 1
  64   31   39 1
  65   31   68 1
  66   32   69 1
  67   32   70 1
  68   32   71 1
  69   33   34 ar
  70   33   38 ar
  71   34   35 ar
  72   34   72 1
  73   35   36 ar
  74   35   73 1
  75   36   37 ar
  76   36   74 1
  77   37   38 ar
  78   37   75 1
  79   38   76 1
  80   39   77 1
  81   39   78 1
  82   39   79 1

#	End of record

