#	Name: ASD03082265
#	Creating user name:	WinNT
#	Creation time:	15. 06. 2019 20:27

#	Modifying user name:	WinNT
#	Modification time:	15. 06. 2019 20:27

#	Program:	/corina/corina34_cracker 3.40 0067  02.08.2006

@<TRIPOS>MOLECULE
ASD03082265
  47   50    0    0    0
SMALL
NO_CHARGES


@<TRIPOS>ATOM
   1 N1             0.4362     1.5919     0.4203 N.pl3   
   2 N2             0.0883     0.2375     0.2908 N.2     
   3 C3             1.2035    -0.4264     0.0888 C.2     
   4 N4             2.2251     0.4307     0.0845 N.2     
   5 C5             1.7794     1.6549     0.2834 C.2     
   6 N6             1.3032    -1.8073    -0.0922 N.pl3   
   7 C7             2.5518    -2.3947    -0.3127 C.ar    
   8 C8             2.6486    -3.5645    -1.0543 C.ar    
   9 C9             3.8886    -4.1436    -1.2711 C.ar    
  10 C10            5.0306    -3.5535    -0.7470 C.ar    
  11 C11            4.9326    -2.3893    -0.0092 C.ar    
  12 C12            3.6988    -1.8057     0.2049 C.ar    
  13 O13            3.9867    -5.2888    -1.9962 O.3     
  14 C14            2.6042     2.8823     0.3455 C.ar    
  15 C15           -0.4762     2.7144     0.6515 C.3     
  16 C16            2.0442     4.1383     0.0896 C.ar    
  17 C17            2.8497     5.2567     0.1589 C.ar    
  18 N18            4.1294     5.1521     0.4608 N.ar    
  19 C19            4.6970     3.9873     0.7091 C.ar    
  20 C20            3.9644     2.8190     0.6675 C.ar    
  21 C21           -1.0982     3.1482    -0.6774 C.3     
  22 O22           -1.5098     2.3105     1.5518 O.3     
  23 C23            6.1643     3.9328     1.0485 C.3     
  24 C24            6.5469     3.9239     2.5298 C.3     
  25 C25            6.6929     2.6505     1.6943 C.3     
  26 C26            5.2964    -5.8301    -2.1799 C.3     
  27 F27            5.8582    -6.1252    -0.9331 F       
  28 F28            5.2147    -6.9997    -2.9432 F       
  29 F29            6.0985    -4.8953    -2.8433 F       
  30 H30            0.5058    -2.3589    -0.0648 H       
  31 H31            1.7590    -4.0224    -1.4610 H       
  32 H32            5.9970    -4.0052    -0.9159 H       
  33 H33            5.8227    -1.9326     0.3977 H       
  34 H34            3.6254    -0.8936     0.7785 H       
  35 H35            0.0763     3.5488     1.0836 H       
  36 H36            0.9973     4.2313    -0.1589 H       
  37 H37            2.4266     6.2309    -0.0370 H       
  38 H38            4.4356     1.8690     0.8722 H       
  39 H39           -1.6508     2.3139    -1.1094 H       
  40 H40           -1.7771     3.9834    -0.5053 H       
  41 H41           -0.3098     3.4563    -1.3641 H       
  42 H42           -2.0434     1.5704     1.2315 H       
  43 H43            6.8257     4.4601     0.3610 H       
  44 H44            7.4602     4.4449     2.8169 H       
  45 H45            5.7373     3.9574     3.2589 H       
  46 H46            5.9794     1.8463     1.8737 H       
  47 H47            7.7023     2.3338     1.4317 H       
@<TRIPOS>BOND
   1    1    2 1
   2    1    5 1
   3    1   15 1
   4    2    3 2
   5    3    4 1
   6    3    6 1
   7    4    5 2
   8    5   14 1
   9    6    7 1
  10    6   30 1
  11    7    8 ar
  12    7   12 ar
  13    8    9 ar
  14    8   31 1
  15    9   10 ar
  16    9   13 1
  17   10   11 ar
  18   10   32 1
  19   11   12 ar
  20   11   33 1
  21   12   34 1
  22   13   26 1
  23   14   16 ar
  24   14   20 ar
  25   15   21 1
  26   15   22 1
  27   15   35 1
  28   16   17 ar
  29   16   36 1
  30   17   18 ar
  31   17   37 1
  32   18   19 ar
  33   19   20 ar
  34   19   23 1
  35   20   38 1
  36   21   39 1
  37   21   40 1
  38   21   41 1
  39   22   42 1
  40   23   24 1
  41   23   25 1
  42   23   43 1
  43   24   25 1
  44   24   44 1
  45   24   45 1
  46   25   46 1
  47   25   47 1
  48   26   27 1
  49   26   28 1
  50   26   29 1

#	End of record

