#	Name: ASD00844802
#	Creating user name:	WinNT
#	Creation time:	15. 06. 2019 18:51

#	Modifying user name:	WinNT
#	Modification time:	15. 06. 2019 18:51

#	Program:	/corina/corina34_cracker 3.40 0067  02.08.2006

@<TRIPOS>MOLECULE
ASD00844802
  94   99    0    0    0
SMALL
NO_CHARGES


@<TRIPOS>ATOM
   1 F1             5.6887    -2.1731    -1.9725 F       
   2 C2             0.7229     1.2448    -0.3978 C.ar    
   3 C3             0.9711    -0.0938    -0.6632 C.ar    
   4 C4             0.8518    -1.0335     0.3507 C.ar    
   5 C5             0.4862    -0.6340     1.6214 C.ar    
   6 C6             0.2388     0.7012     1.8833 C.ar    
   7 C7             0.3575     1.6393     0.8749 C.ar    
   8 C8             1.1203    -2.4887     0.0657 C.3     
   9 C9             0.7964    -3.3351     1.2784 C.2     
  10 C10            0.3096    -2.9548    -1.1452 C.3     
  11 C11           -1.1512    -2.6660    -0.9131 C.2     
  12 N12           -2.0710    -3.0859    -1.8042 N.am    
  13 O13           -1.4990    -2.0557     0.0756 O.2     
  14 C14           -3.4844    -2.7144    -1.6525 C.3     
  15 C15           -4.3343    -3.9888    -1.6752 C.3     
  16 C16           -4.0256    -4.7804    -2.9481 C.3     
  17 C17           -2.5494    -5.1842    -2.9543 C.3     
  18 C18           -1.6784    -3.9187    -2.9492 C.3     
  19 N19           -4.8630    -5.9866    -2.9894 N.3     
  20 C20           -4.6803    -6.7115    -4.2546 C.3     
  21 C21           -5.5068    -7.9994    -4.2256 C.3     
  22 N22           -6.9220    -7.6655    -4.0128 N.3     
  23 C23           -7.1047    -6.9406    -2.7476 C.3     
  24 C24           -6.2783    -5.6527    -2.7767 C.3     
  25 C25           -7.7595    -8.8717    -4.0542 C.3     
  26 O26           -0.2881    -3.4473     1.8097 O.2     
  27 N27            1.9359    -3.9394     1.6550 N.am    
  28 C28            2.5966    -2.7202    -0.1609 C.ar    
  29 C29            3.0112    -3.5999     0.8313 C.ar    
  30 C30            3.4855    -2.2425    -1.0972 C.ar    
  31 C31            4.8127    -2.6397    -1.0560 C.ar    
  32 C32            5.2380    -3.5167    -0.0710 C.ar    
  33 C33            4.3463    -3.9958     0.8681 C.ar    
  34 Cl34           6.8999    -4.0155    -0.0175 Cl      
  35 C35            1.7303    -6.5941     2.3512 C.ar    
  36 C36            2.7719    -7.3801     1.8942 C.ar    
  37 C37            0.4374    -7.0842     2.3462 C.ar    
  38 C38            0.1834    -8.3611     1.8842 C.ar    
  39 C39            1.2268    -9.1518     1.4251 C.ar    
  40 C40            2.5231    -8.6575     1.4308 C.ar    
  41 O41            0.9795   -10.4084     0.9706 O.3     
  42 H42            3.7809    -6.9950     1.8992 H       
  43 C43            2.1019   -11.1654     0.5132 C.3     
  44 C44           -9.2029    -8.5025    -3.7063 C.3     
  45 C45           -7.7122    -9.4775    -5.4584 C.3     
  46 S46            2.0520    -4.9677     2.9479 S.o2    
  47 O47            3.4139    -4.9509     3.3529 O.2     
  48 O48            0.9780    -4.6401     3.8188 O.2     
  49 O49            1.3302    -0.4844    -1.9143 O.3     
  50 C50            1.3555     0.5239    -2.9266 C.3     
  51 C51            1.8633    -0.0813    -4.2368 C.3     
  52 F52            3.1176    -0.6641    -4.0260 F       
  53 F53            0.9639    -1.0574    -4.6791 F       
  54 H54            0.8194     1.9787    -1.1843 H       
  55 H55            0.3932    -1.3650     2.4109 H       
  56 H56           -0.0476     1.0114     2.8774 H       
  57 H57            0.1637     2.6814     1.0820 H       
  58 H58            0.6480    -2.4240    -2.0351 H       
  59 H59            0.4502    -4.0265    -1.2859 H       
  60 H60           -3.6265    -2.1973    -0.7035 H       
  61 H61           -3.7811    -2.0626    -2.4742 H       
  62 H62           -4.1000    -4.5979    -0.8021 H       
  63 H63           -5.3909    -3.7217    -1.6602 H       
  64 H64           -4.2366    -4.1620    -3.8205 H       
  65 H65           -2.3320    -5.7820    -2.0692 H       
  66 H66           -2.3357    -5.7679    -3.8497 H       
  67 H67           -1.8292    -3.3676    -3.8775 H       
  68 H68           -0.6291    -4.1977    -2.8538 H       
  69 H69           -5.0113    -6.0856    -5.0834 H       
  70 H70           -3.6265    -6.9585    -4.3833 H       
  71 H71           -5.3956    -8.5243    -5.1744 H       
  72 H72           -5.1576    -8.6373    -3.4136 H       
  73 H73           -8.1585    -6.6936    -2.6189 H       
  74 H74           -6.7737    -7.5665    -1.9189 H       
  75 H75           -6.3894    -5.1278    -1.8279 H       
  76 H76           -6.6274    -5.0148    -3.5886 H       
  77 H77           -7.3861    -9.5981    -3.3323 H       
  78 H78            3.1491    -1.5595    -1.8632 H       
  79 H79            4.6847    -4.6791     1.6329 H       
  80 H80           -0.3744    -6.4684     2.7040 H       
  81 H81           -0.8266    -8.7436     1.8808 H       
  82 H82            3.3371    -9.2712     1.0742 H       
  83 H83            2.5792   -10.6428    -0.3158 H       
  84 H84            2.8165   -11.2839     1.3277 H       
  85 H85            1.7661   -12.1470     0.1787 H       
  86 H86           -9.5762    -7.7761    -4.4281 H       
  87 H87           -9.8243    -9.3975    -3.7369 H       
  88 H88           -9.2366    -8.0710    -2.7059 H       
  89 H89           -6.6839    -9.7404    -5.7062 H       
  90 H90           -8.3336   -10.3725    -5.4890 H       
  91 H91           -8.0856    -8.7510    -6.1802 H       
  92 H92            0.3493     0.9164    -3.0736 H       
  93 H93            2.0192     1.3317    -2.6182 H       
  94 H94            1.9486     0.7020    -4.9899 H       
@<TRIPOS>BOND
   1    1   31 1
   2    2    3 ar
   3    2    7 ar
   4    2   54 1
   5    3    4 ar
   6    3   49 1
   7    4    5 ar
   8    4    8 1
   9    5    6 ar
  10    5   55 1
  11    6    7 ar
  12    6   56 1
  13    7   57 1
  14    8    9 1
  15    8   10 1
  16    8   28 1
  17    9   26 2
  18    9   27 am
  19   10   11 1
  20   10   58 1
  21   10   59 1
  22   11   12 am
  23   11   13 2
  24   12   14 1
  25   12   18 1
  26   14   15 1
  27   14   60 1
  28   14   61 1
  29   15   16 1
  30   15   62 1
  31   15   63 1
  32   16   17 1
  33   16   19 1
  34   16   64 1
  35   17   18 1
  36   17   65 1
  37   17   66 1
  38   18   67 1
  39   18   68 1
  40   19   20 1
  41   19   24 1
  42   20   21 1
  43   20   69 1
  44   20   70 1
  45   21   22 1
  46   21   71 1
  47   21   72 1
  48   22   23 1
  49   22   25 1
  50   23   24 1
  51   23   73 1
  52   23   74 1
  53   24   75 1
  54   24   76 1
  55   25   44 1
  56   25   45 1
  57   25   77 1
  58   27   46 am
  59   27   29 1
  60   28   29 ar
  61   28   30 ar
  62   29   33 ar
  63   30   31 ar
  64   30   78 1
  65   31   32 ar
  66   32   33 ar
  67   32   34 1
  68   33   79 1
  69   35   36 ar
  70   35   37 ar
  71   35   46 1
  72   36   42 1
  73   36   40 ar
  74   37   38 ar
  75   37   80 1
  76   38   39 ar
  77   38   81 1
  78   39   40 ar
  79   39   41 1
  80   40   82 1
  81   41   43 1
  82   43   83 1
  83   43   84 1
  84   43   85 1
  85   44   86 1
  86   44   87 1
  87   44   88 1
  88   45   89 1
  89   45   90 1
  90   45   91 1
  91   46   47 2
  92   46   48 2
  93   49   50 1
  94   50   51 1
  95   50   92 1
  96   50   93 1
  97   51   52 1
  98   51   53 1
  99   51   94 1

#	End of record

