#	Name: ASD09740266
#	Creating user name:	WinNT
#	Creation time:	15. 06. 2019 21:23

#	Modifying user name:	WinNT
#	Modification time:	15. 06. 2019 21:23

#	Program:	/corina/corina34_cracker 3.40 0067  02.08.2006

@<TRIPOS>MOLECULE
ASD09740266
  56   59    0    0    0
SMALL
NO_CHARGES


@<TRIPOS>ATOM
   1 N1            -0.0144     1.2085     0.0087 N.2     
   2 O2             0.0021    -0.0041     0.0020 O.3     
   3 C3             1.2057     1.6798    -0.0004 C.2     
   4 N4             2.0455     0.6239    -0.0141 N.2     
   5 C5             1.2699    -0.4439    -0.0125 C.2     
   6 C6             1.7129    -1.8543    -0.0243 C.ar    
   7 C7             1.5950     3.1130     0.0031 C.ar    
   8 C8             0.7715    -2.8845    -0.0208 C.ar    
   9 C9             1.1916    -4.1987    -0.0323 C.ar    
  10 C10            2.5425    -4.4962    -0.0473 C.ar    
  11 C11            3.4811    -3.4793    -0.0504 C.ar    
  12 C12            3.0744    -2.1612    -0.0447 C.ar    
  13 C13            0.6263     4.1194     0.0178 C.ar    
  14 C14            1.0315     5.4391     0.0211 C.ar    
  15 N15            2.3122     5.7539     0.0101 N.ar    
  16 C16            3.2577     4.8345    -0.0039 C.ar    
  17 C17            2.9397     3.4912    -0.0023 C.ar    
  18 C18            0.1765    -5.3126    -0.0281 C.3     
  19 C19            0.3536    -6.1685    -1.2844 C.3     
  20 C20           -0.7020    -7.2787    -1.2940 C.3     
  21 N21           -0.6100    -8.0295    -0.0344 N.am    
  22 C22           -0.6773    -7.2916     1.2344 C.3     
  23 C23            0.3780    -6.1813     1.2156 C.3     
  24 C24           -0.4670    -9.3696    -0.0426 C.2     
  25 O25           -0.4131    -9.9684    -1.0986 O.2     
  26 O26           -0.3840   -10.0450     1.1192 O.3     
  27 C27           -0.2310   -11.4864     1.0343 C.3     
  28 C28            1.0537   -11.8189     0.2728 C.3     
  29 C29           -0.1549   -12.0751     2.4444 C.3     
  30 C30           -1.4306   -12.0840     0.2962 C.3     
  31 H31           -0.2834    -2.6536    -0.0088 H       
  32 H32            2.8661    -5.5265    -0.0563 H       
  33 H33            4.5343    -3.7182    -0.0617 H       
  34 H34            3.8079    -1.3685    -0.0475 H       
  35 H35           -0.4242     3.8688     0.0261 H       
  36 H36            0.2899     6.2241     0.0324 H       
  37 H37            4.2945     5.1367    -0.0129 H       
  38 H38            3.7191     2.7436    -0.0134 H       
  39 H39           -0.8276    -4.8887    -0.0160 H       
  40 H40            0.2331    -5.5443    -2.1698 H       
  41 H41            1.3489    -6.6128    -1.2846 H       
  42 H42           -1.6948    -6.8382    -1.3851 H       
  43 H43           -0.5191    -7.9495    -2.1334 H       
  44 H44           -1.6681    -6.8522     1.3494 H       
  45 H45           -0.4781    -7.9710     2.0632 H       
  46 H46            1.3731    -6.6255     1.1918 H       
  47 H47            0.2749    -5.5662     2.1096 H       
  48 H48            1.9083   -11.3931     0.7986 H       
  49 H49            1.1685   -12.9010     0.2091 H       
  50 H50            0.9995   -11.3995    -0.7318 H       
  51 H51           -1.0702   -11.8382     2.9869 H       
  52 H52           -0.0401   -13.1571     2.3807 H       
  53 H53            0.6997   -11.6493     2.9703 H       
  54 H54           -1.4848   -11.6646    -0.7084 H       
  55 H55           -1.3157   -13.1661     0.2325 H       
  56 H56           -2.3458   -11.8471     0.8387 H       
@<TRIPOS>BOND
   1    1    2 1
   2    1    3 2
   3    2    5 1
   4    3    4 1
   5    3    7 1
   6    4    5 2
   7    5    6 1
   8    6    8 ar
   9    6   12 ar
  10    7   13 ar
  11    7   17 ar
  12    8    9 ar
  13    8   31 1
  14    9   10 ar
  15    9   18 1
  16   10   11 ar
  17   10   32 1
  18   11   12 ar
  19   11   33 1
  20   12   34 1
  21   13   14 ar
  22   13   35 1
  23   14   15 ar
  24   14   36 1
  25   15   16 ar
  26   16   17 ar
  27   16   37 1
  28   17   38 1
  29   18   19 1
  30   18   23 1
  31   18   39 1
  32   19   20 1
  33   19   40 1
  34   19   41 1
  35   20   21 1
  36   20   42 1
  37   20   43 1
  38   21   22 1
  39   21   24 am
  40   22   23 1
  41   22   44 1
  42   22   45 1
  43   23   46 1
  44   23   47 1
  45   24   25 2
  46   24   26 1
  47   26   27 1
  48   27   28 1
  49   27   29 1
  50   27   30 1
  51   28   48 1
  52   28   49 1
  53   28   50 1
  54   29   51 1
  55   29   52 1
  56   29   53 1
  57   30   54 1
  58   30   55 1
  59   30   56 1

#	End of record

