#	Name: ASD01200253
#	Creating user name:	WinNT
#	Creation time:	15. 06. 2019 19:08

#	Modifying user name:	WinNT
#	Modification time:	15. 06. 2019 19:08

#	Program:	/corina/corina34_cracker 3.40 0067  02.08.2006

@<TRIPOS>MOLECULE
ASD01200253
  27   29    0    0    0
SMALL
NO_CHARGES


@<TRIPOS>ATOM
   1 C1            -0.0167     1.3803     0.0096 C.ar    
   2 C2             0.0021    -0.0041     0.0020 C.ar    
   3 C3             1.2160    -0.6710     0.0002 C.ar    
   4 C4             2.3969     0.0415     0.0059 C.ar    
   5 C5             2.3932     1.4283    -0.0132 C.ar    
   6 C6             1.1631     2.0920     0.0022 C.ar    
   7 S7             3.9369    -0.8279     0.0703 S.o2    
   8 N8             5.0840     0.3720    -0.1206 N.am    
   9 C9             4.7477     1.6577     0.5264 C.3     
  10 N10            3.5433     2.2044    -0.0849 N.3     
  11 C11            3.2864     3.5711     0.3886 C.3     
  12 O12            4.0756    -1.3255     1.3941 O.2     
  13 O13            3.9981    -1.6466    -1.0895 O.2     
  14 C14            3.0503     3.7668     1.8876 C.3     
  15 C15            4.3617     4.2333     1.2524 C.3     
  16 F16           -1.1560    -0.6998    -0.0031 F       
  17 H17           -0.9607     1.9048     0.0170 H       
  18 H18            1.2378    -1.7508    -0.0055 H       
  19 H19            1.1372     3.1717     0.0082 H       
  20 H20            5.9061     0.2354    -0.6168 H       
  21 H21            4.5742     1.4953     1.5902 H       
  22 H22            5.5726     2.3580     0.3946 H       
  23 H23            2.7275     4.2087    -0.2964 H       
  24 H24            2.3363     4.5333     2.1887 H       
  25 H25            3.0855     2.8814     2.5224 H       
  26 H26            5.2597     3.6548     1.4694 H       
  27 H27            4.5105     5.3067     1.1357 H       
@<TRIPOS>BOND
   1    1    2 ar
   2    1    6 ar
   3    1   17 1
   4    2    3 ar
   5    2   16 1
   6    3    4 ar
   7    3   18 1
   8    4    5 ar
   9    4    7 1
  10    5    6 ar
  11    5   10 1
  12    6   19 1
  13    7    8 am
  14    7   12 2
  15    7   13 2
  16    8    9 1
  17    8   20 1
  18    9   10 1
  19    9   21 1
  20    9   22 1
  21   10   11 1
  22   11   14 1
  23   11   15 1
  24   11   23 1
  25   14   15 1
  26   14   24 1
  27   14   25 1
  28   15   26 1
  29   15   27 1

#	End of record

