#	Name: ASD02198019
#	Creating user name:	WinNT
#	Creation time:	15. 06. 2019 20:18

#	Modifying user name:	WinNT
#	Modification time:	15. 06. 2019 20:18

#	Program:	/corina/corina34_cracker 3.40 0067  02.08.2006

@<TRIPOS>MOLECULE
ASD02198019
  26   26    0    0    0
SMALL
NO_CHARGES


@<TRIPOS>ATOM
   1 N1            -3.5093     0.1445     0.0377 N.1     
   2 N2            -0.0166     1.3720     0.0096 N.pl3   
   3 C3             0.0021    -0.0041     0.0020 C.2     
   4 C4            -1.1220    -0.8013     0.0085 C.2     
   5 C5            -2.4532    -0.2739     0.0248 C.1     
   6 S6             1.4189    -0.9522    -0.0240 S.3     
   7 C7             0.4972    -2.4472    -0.0194 C.2     
   8 C8            -0.8457    -2.1680    -0.0023 C.2     
   9 C9             1.0540    -3.7403    -0.0350 C.2     
  10 O10            0.3262    -4.7169    -0.0306 O.2     
  11 O11            2.3953    -3.8978    -0.0548 O.3     
  12 N12           -1.8292    -3.1461     0.0053 N.pl3   
  13 C13            2.8910    -5.2380    -0.0698 C.3     
  14 C14            1.2420     2.1216     0.0016 C.3     
  15 C15            0.9421     3.6219     0.0125 C.3     
  16 H16           -0.8631     1.8455     0.0162 H       
  17 H17           -1.5807    -4.0837    -0.0015 H       
  18 H18           -2.7653    -2.8925     0.0174 H       
  19 H19            2.5476    -5.7624     0.8220 H       
  20 H20            2.5226    -5.7517    -0.9578 H       
  21 H21            3.9807    -5.2222    -0.0850 H       
  22 H22            1.8256     1.8614     0.8847 H       
  23 H23            1.8086     1.8709    -0.8952 H       
  24 H24            0.3585     3.8822    -0.8706 H       
  25 H25            0.3755     3.8727     0.9093 H       
  26 H26            1.8785     4.1797     0.0066 H       
@<TRIPOS>BOND
   1    1    5 3
   2    2    3 1
   3    2   14 1
   4    2   16 1
   5    3    4 2
   6    3    6 1
   7    4    5 1
   8    4    8 1
   9    6    7 1
  10    7    8 2
  11    7    9 1
  12    8   12 1
  13    9   10 2
  14    9   11 1
  15   11   13 1
  16   12   17 1
  17   12   18 1
  18   13   19 1
  19   13   20 1
  20   13   21 1
  21   14   15 1
  22   14   22 1
  23   14   23 1
  24   15   24 1
  25   15   25 1
  26   15   26 1

#	End of record

