#	Name: ASD00192044
#	Creating user name:	WinNT
#	Creation time:	15. 06. 2019 18:33

#	Modifying user name:	WinNT
#	Modification time:	15. 06. 2019 18:33

#	Program:	/corina/corina34_cracker 3.40 0067  02.08.2006

@<TRIPOS>MOLECULE
ASD00192044
  37   40    0    0    0
SMALL
NO_CHARGES


@<TRIPOS>ATOM
   1 N1            -0.0157     1.3046     0.0092 N.ar    
   2 C2             0.0021    -0.0041     0.0020 C.ar    
   3 C3             1.2127    -0.7187    -0.0129 C.ar    
   4 C4             2.4217    -0.0117    -0.0206 C.ar    
   5 C5             2.3737     1.3978    -0.0131 C.ar    
   6 C6             3.5410     2.1727    -0.0204 C.ar    
   7 C7             3.4495     3.5327    -0.0130 C.ar    
   8 C8             2.2082     4.1624     0.0018 C.ar    
   9 C9             1.0545     3.4385     0.0092 C.ar    
  10 C10            1.1091     2.0354     0.0024 C.ar    
  11 C11            2.8229    -2.1751    -0.0346 C.2     
  12 N12            1.5281    -2.0370    -0.0221 N.2     
  13 N13            3.4187    -0.9521    -0.0343 N.pl3   
  14 O14           -1.2647     1.9716     0.0187 O.3     
  15 C15            3.5527    -3.4935    -0.0466 C.3     
  16 C16            3.8970    -3.8728    -1.4883 C.3     
  17 C17            4.6380    -5.2113    -1.5005 C.3     
  18 C18            5.9261    -5.0886    -0.6840 C.3     
  19 C19            5.5818    -4.7093     0.7577 C.3     
  20 C20            4.8408    -3.3708     0.7699 C.3     
  21 H21           -0.9321    -0.5459     0.0080 H       
  22 H22            4.5093     1.6945    -0.0315 H       
  23 H23            4.3503     4.1284    -0.0183 H       
  24 H24            2.1592     5.2412     0.0078 H       
  25 H25            0.0995     3.9427     0.0204 H       
  26 H26            4.3728    -0.7778    -0.0425 H       
  27 H27            2.9178    -4.2643     0.3902 H       
  28 H28            2.9793    -3.9602    -2.0700 H       
  29 H29            4.5320    -3.1020    -1.9251 H       
  30 H30            4.0030    -5.9821    -1.0637 H       
  31 H31            4.8832    -5.4816    -2.5276 H       
  32 H32            6.4540    -6.0422    -0.6926 H       
  33 H33            6.5610    -4.3178    -1.1207 H       
  34 H34            4.9469    -5.4801     1.1945 H       
  35 H35            6.4995    -4.6219     1.3394 H       
  36 H36            5.4758    -2.6000     0.3331 H       
  37 H37            4.5956    -3.1006     1.7970 H       
@<TRIPOS>BOND
   1    1    2 ar
   2    1   10 ar
   3    1   14 1
   4    2    3 ar
   5    2   21 1
   6    3    4 ar
   7    3   12 1
   8    4    5 ar
   9    4   13 1
  10    5    6 ar
  11    5   10 ar
  12    6    7 ar
  13    6   22 1
  14    7    8 ar
  15    7   23 1
  16    8    9 ar
  17    8   24 1
  18    9   10 ar
  19    9   25 1
  20   11   12 2
  21   11   13 1
  22   11   15 1
  23   13   26 1
  24   15   16 1
  25   15   20 1
  26   15   27 1
  27   16   17 1
  28   16   28 1
  29   16   29 1
  30   17   18 1
  31   17   30 1
  32   17   31 1
  33   18   19 1
  34   18   32 1
  35   18   33 1
  36   19   20 1
  37   19   34 1
  38   19   35 1
  39   20   36 1
  40   20   37 1

#	End of record

