#	Name: ASD01900047
#	Creating user name:	WinNT
#	Creation time:	15. 06. 2019 19:51

#	Modifying user name:	WinNT
#	Modification time:	15. 06. 2019 19:51

#	Program:	/corina/corina34_cracker 3.40 0067  02.08.2006

@<TRIPOS>MOLECULE
ASD01900047
  38   41    0    0    0
SMALL
NO_CHARGES


@<TRIPOS>ATOM
   1 C1            -0.1932     1.2647    -0.6512 C.3     
   2 C2            -0.1782    -0.2473    -0.4234 C.3     
   3 C3             1.1736    -0.8678    -0.6654 C.2     
   4 O4             1.8313    -0.5325    -1.6277 O.2     
   5 O5             1.8388     1.2154    -2.0525 O.3     
   6 C6             1.1469     1.8126    -1.0696 C.2     
   7 O7             1.5984     2.7894    -0.5202 O.2     
   8 N8             1.6518    -1.7955     0.1875 N.am    
   9 C9             2.9029    -2.3783    -0.0423 C.ar    
  10 C10            3.1602    -3.6696     0.3989 C.ar    
  11 C11            4.3969    -4.2433     0.1702 C.ar    
  12 C12            5.3782    -3.5319    -0.4975 C.ar    
  13 C13            5.1243    -2.2449    -0.9382 C.ar    
  14 C14            3.8874    -1.6687    -0.7171 C.ar    
  15 Cl15           6.3581    -1.3558    -1.7754 Cl      
  16 Cl16           4.7193    -5.8576     0.7214 Cl      
  17 C17            1.9399     1.4071     0.8693 C.2     
  18 C18            1.9525     0.1040     1.0658 C.2     
  19 C19            0.7671    -0.2616     1.9676 C.3     
  20 C20           -0.4841    -0.0363     1.0600 C.3     
  21 C21           -0.4989     1.4940     0.8295 C.3     
  22 C22            0.7454     2.0002     1.6265 C.3     
  23 C23            0.7041     1.0296     2.8632 C.3     
  24 H24           -0.9994     1.5898    -1.3088 H       
  25 H25           -0.9758    -0.7674    -0.9539 H       
  26 H26            2.6934     1.6031    -2.2860 H       
  27 H27            1.1286    -2.0590     0.9606 H       
  28 H28            2.3949    -4.2250     0.9206 H       
  29 H29            6.3440    -3.9817    -0.6746 H       
  30 H30            3.6897    -0.6644    -1.0615 H       
  31 H31            2.6502     1.9631     0.2753 H       
  32 H32            2.6748    -0.5890     0.6603 H       
  33 H33            0.8264    -1.2227     2.4783 H       
  34 H34           -1.4036    -0.4940     1.4247 H       
  35 H35           -1.4358     2.0069     1.0467 H       
  36 H36            0.7854     3.0701     1.8310 H       
  37 H37           -0.2287     1.1049     3.4221 H       
  38 H38            1.5780     1.1349     3.5061 H       
@<TRIPOS>BOND
   1    1    2 1
   2    1    6 1
   3    1   21 1
   4    1   24 1
   5    2    3 1
   6    2   20 1
   7    2   25 1
   8    3    4 2
   9    3    8 am
  10    5    6 1
  11    5   26 1
  12    6    7 2
  13    8    9 1
  14    8   27 1
  15    9   10 ar
  16    9   14 ar
  17   10   11 ar
  18   10   28 1
  19   11   12 ar
  20   11   16 1
  21   12   13 ar
  22   12   29 1
  23   13   14 ar
  24   13   15 1
  25   14   30 1
  26   17   18 2
  27   17   22 1
  28   17   31 1
  29   18   19 1
  30   18   32 1
  31   19   20 1
  32   19   23 1
  33   19   33 1
  34   20   21 1
  35   20   34 1
  36   21   22 1
  37   21   35 1
  38   22   23 1
  39   22   36 1
  40   23   37 1
  41   23   38 1

#	End of record

