#	Name: ASD02690049
#	Creating user name:	WinNT
#	Creation time:	15. 06. 2019 20:26

#	Modifying user name:	WinNT
#	Modification time:	15. 06. 2019 20:26

#	Program:	/corina/corina34_cracker 3.40 0067  02.08.2006

@<TRIPOS>MOLECULE
ASD02690049
  28   30    0    0    0
SMALL
NO_CHARGES


@<TRIPOS>ATOM
   1 C1            -0.1771     1.4966     0.6028 C.2     
   2 C2            -0.1462    -0.0098     0.5748 C.3     
   3 O3             0.7161     2.1115     1.1459 O.2     
   4 N4            -1.1946     2.1607     0.0195 N.am    
   5 O5            -5.8948     4.7100     0.1134 O.3     
   6 C6            -4.8491     3.9492     0.7214 C.3     
   7 C7            -4.9269     5.4804     0.8287 C.3     
   8 C8            -3.7552     3.3974    -0.2045 C.3     
   9 C9            -3.9009     6.2634    -0.0034 C.3     
  10 C10           -2.5634     5.5735     0.1110 C.ar    
  11 C11           -1.4134     6.3129     0.3120 C.ar    
  12 C12           -0.1899     5.6765     0.4166 C.ar    
  13 C13           -0.1137     4.3007     0.3193 C.ar    
  14 C14           -1.2679     3.5546     0.1177 C.ar    
  15 C15           -2.4937     4.1963     0.0141 C.ar    
  16 F16            1.0007    -0.4650     1.2340 F       
  17 F17           -1.2833    -0.5116     1.2169 F       
  18 F18           -0.1273    -0.4512    -0.7526 F       
  19 H19           -1.8760     1.6724    -0.4685 H       
  20 H20           -5.0876     3.3553     1.6037 H       
  21 H21           -5.2179     5.9186     1.7834 H       
  22 H22           -3.5704     2.3494     0.0313 H       
  23 H23           -4.0728     3.4914    -1.2430 H       
  24 H24           -4.2146     6.2831    -1.0471 H       
  25 H25           -3.8214     7.2816     0.3772 H       
  26 H26           -1.4701     7.3887     0.3879 H       
  27 H27            0.7076     6.2563     0.5737 H       
  28 H28            0.8426     3.8054     0.4006 H       
@<TRIPOS>BOND
   1    1    2 1
   2    1    3 2
   3    1    4 am
   4    2   16 1
   5    2   17 1
   6    2   18 1
   7    4   14 1
   8    4   19 1
   9    5    6 1
  10    5    7 1
  11    6    7 1
  12    6    8 1
  13    6   20 1
  14    7    9 1
  15    7   21 1
  16    8   15 1
  17    8   22 1
  18    8   23 1
  19    9   10 1
  20    9   24 1
  21    9   25 1
  22   10   11 ar
  23   10   15 ar
  24   11   12 ar
  25   11   26 1
  26   12   13 ar
  27   12   27 1
  28   13   14 ar
  29   13   28 1
  30   14   15 ar

#	End of record

