#	Name: ASD03331116
#	Creating user name:	WinNT
#	Creation time:	15. 06. 2019 20:38

#	Modifying user name:	WinNT
#	Modification time:	15. 06. 2019 20:38

#	Program:	/corina/corina34_cracker 3.40 0067  02.08.2006

@<TRIPOS>MOLECULE
ASD03331116
  49   52    0    0    0
SMALL
NO_CHARGES


@<TRIPOS>ATOM
   1 C1            -0.0165     1.2102     0.0873 C.2     
   2 O2             0.0002    -0.0055     0.0571 O.2     
   3 N3             1.1406     1.8988     0.1469 N.am    
   4 C4             2.4873     1.3099     0.1810 C.3     
   5 C5             3.4947     2.4753     0.2736 C.3     
   6 C6             2.6378     3.6299     0.8567 C.3     
   7 C7             1.2657     3.3673     0.1823 C.3     
   8 O8             3.9912     2.8185    -1.0217 O.3     
   9 N9            -3.4427     2.3785    -0.0400 N.pl3   
  10 C10           -2.5377     1.3637    -0.0127 C.2     
  11 C11           -2.8663    -0.1062    -0.0379 C.3     
  12 N12           -3.8508    -0.3619    -1.1009 N.3     
  13 C13           -5.2196    -0.2146    -0.6025 C.3     
  14 C14           -5.2980     0.8736     0.4644 C.3     
  15 C15           -4.8965     2.2219    -0.1398 C.3     
  16 C16           -2.7457     3.5496     0.0300 C.2     
  17 N17           -1.4639     3.2718     0.0801 N.2     
  18 C18           -1.3015     1.9305     0.0527 C.2     
  19 C19           -3.6480    -1.6886    -1.6982 C.3     
  20 C20           -3.3360     4.9053     0.0459 C.ar    
  21 C21           -2.9041     5.8474     0.9837 C.ar    
  22 C22           -3.4592     7.1126     0.9932 C.ar    
  23 C23           -4.4417     7.4471     0.0760 C.ar    
  24 C24           -4.8738     6.5154    -0.8562 C.ar    
  25 C25           -4.3220     5.2505    -0.8789 C.ar    
  26 F26           -4.9816     8.6855     0.0897 F       
  27 F27           -1.9464     5.5215     1.8791 F       
  28 Cl28          -6.1066     6.9432    -2.0011 Cl      
  29 H29            2.5872     0.6634     1.0529 H       
  30 H30            2.6649     0.7379    -0.7296 H       
  31 H31            4.3137     2.2245     0.9477 H       
  32 H32            2.5648     3.5529     1.9415 H       
  33 H33            3.0369     4.6003     0.5614 H       
  34 H34            1.2535     3.7735    -0.8291 H       
  35 H35            0.4620     3.8023     0.7764 H       
  36 H36            4.4685     2.1023    -1.4624 H       
  37 H37           -1.9600    -0.6788    -0.2353 H       
  38 H38           -3.2836    -0.4028     0.9243 H       
  39 H39           -5.8762     0.0489    -1.4317 H       
  40 H40           -5.5483    -1.1612    -0.1734 H       
  41 H41           -6.3178     0.9359     0.8442 H       
  42 H42           -4.6218     0.6277     1.2832 H       
  43 H43           -5.3881     3.0269     0.4065 H       
  44 H44           -5.1956     2.2553    -1.1875 H       
  45 H45           -3.7569    -2.4537    -0.9295 H       
  46 H46           -4.3889    -1.8518    -2.4808 H       
  47 H47           -2.6477    -1.7447    -2.1275 H       
  48 H48           -3.1266     7.8418     1.7171 H       
  49 H49           -4.6561     4.5277    -1.6085 H       
@<TRIPOS>BOND
   1    1    2 2
   2    1    3 am
   3    1   18 1
   4    3    4 1
   5    3    7 1
   6    4    5 1
   7    4   29 1
   8    4   30 1
   9    5    6 1
  10    5    8 1
  11    5   31 1
  12    6    7 1
  13    6   32 1
  14    6   33 1
  15    7   34 1
  16    7   35 1
  17    8   36 1
  18    9   10 1
  19    9   15 1
  20    9   16 1
  21   10   11 1
  22   10   18 2
  23   11   12 1
  24   11   37 1
  25   11   38 1
  26   12   13 1
  27   12   19 1
  28   13   14 1
  29   13   39 1
  30   13   40 1
  31   14   15 1
  32   14   41 1
  33   14   42 1
  34   15   43 1
  35   15   44 1
  36   16   17 2
  37   16   20 1
  38   17   18 1
  39   19   45 1
  40   19   46 1
  41   19   47 1
  42   20   21 ar
  43   20   25 ar
  44   21   22 ar
  45   21   27 1
  46   22   23 ar
  47   22   48 1
  48   23   24 ar
  49   23   26 1
  50   24   25 ar
  51   24   28 1
  52   25   49 1

#	End of record

