#	Name: ASD01912553
#	Creating user name:	WinNT
#	Creation time:	15. 06. 2019 19:59

#	Modifying user name:	WinNT
#	Modification time:	15. 06. 2019 19:59

#	Program:	/corina/corina34_cracker 3.40 0067  02.08.2006

@<TRIPOS>MOLECULE
ASD01912553
  65   69    0    0    0
SMALL
NO_CHARGES


@<TRIPOS>ATOM
   1 C1             0.0005     1.4166    -0.3883 C.ar    
   2 C2            -1.2143     1.9575     0.0328 C.ar    
   3 C3             1.2605     2.1625    -0.1731 C.2     
   4 N4             1.3790     3.5089     0.0077 N.pl3   
   5 C5             2.5139     1.6275    -0.1135 C.2     
   6 C6             3.4194     2.6795     0.1042 C.2     
   7 N7             2.7378     3.8037     0.1763 N.2     
   8 C8             4.8920     2.5459     0.2350 C.ar    
   9 C9             5.5013     1.3080     0.0396 C.ar    
  10 C10            5.6693     3.6588     0.5477 C.ar    
  11 C11            7.0380     3.5301     0.6685 C.ar    
  12 C12            7.6391     2.2966     0.4790 C.ar    
  13 C13            6.8702     1.1882     0.1622 C.ar    
  14 C14            0.2791     4.4765     0.0225 C.3     
  15 C15           -0.1673     4.7078     1.4432 C.2     
  16 N16           -1.1742     5.5655     1.7019 N.am    
  17 O17            0.3794     4.1221     2.3536 O.2     
  18 C18           -1.6255     5.8059     3.0810 C.3     
  19 C19           -1.6548     7.3181     3.3270 C.3     
  20 N20           -2.4656     7.9647     2.2865 N.3     
  21 C21           -1.8712     7.7794     0.9560 C.3     
  22 C22           -1.8467     6.2906     0.6133 C.3     
  23 C23           -2.6517     9.3201     2.5672 C.ar    
  24 C24           -2.0951     9.8762     3.7122 C.ar    
  25 C25           -2.2790    11.2172     3.9894 C.ar    
  26 C26           -3.0168    12.0083     3.1297 C.ar    
  27 C27           -3.5757    11.4580     1.9844 C.ar    
  28 C28           -3.3885    10.1149     1.6995 C.ar    
  29 C29           -2.3856     1.2570    -0.1703 C.ar    
  30 C30           -2.3567     0.0203    -0.7898 C.ar    
  31 C31           -1.1551    -0.5215    -1.2098 C.ar    
  32 C32            0.0235     0.1670    -1.0080 C.ar    
  33 F33            8.9794     2.1750     0.5977 F       
  34 C34            7.8800     4.7334     1.0063 C.3     
  35 O35           -4.3018    12.2373     1.1404 O.3     
  36 C36           -4.4493    13.6140     1.4938 C.3     
  37 H37           -1.2381     2.9225     0.5172 H       
  38 H38            2.7653     0.5821    -0.2155 H       
  39 H39            4.9027     0.4436    -0.2071 H       
  40 H40            5.2015     4.6209     0.6952 H       
  41 H41            7.3428     0.2282     0.0157 H       
  42 H42            0.6177     5.4181    -0.4098 H       
  43 H43           -0.5548     4.0875    -0.5616 H       
  44 H44           -2.6254     5.3935     3.2161 H       
  45 H45           -0.9345     5.3345     3.7798 H       
  46 H46           -2.0912     7.5190     4.3054 H       
  47 H47           -0.6390     7.7118     3.2936 H       
  48 H48           -2.4646     8.3148     0.2148 H       
  49 H49           -0.8523     8.1666     0.9556 H       
  50 H50           -1.3044     6.1386    -0.3199 H       
  51 H51           -2.8673     5.9216     0.5113 H       
  52 H52           -1.5185     9.2599     4.3862 H       
  53 H53           -1.8455    11.6478     4.8799 H       
  54 H54           -3.1590    13.0561     3.3493 H       
  55 H55           -3.8227     9.6851     0.8089 H       
  56 H56           -3.3268     1.6747     0.1553 H       
  57 H57           -3.2760    -0.5245    -0.9460 H       
  58 H58           -1.1390    -1.4875    -1.6925 H       
  59 H59            0.9610    -0.2570    -1.3363 H       
  60 H60            7.9754     4.8178     2.0888 H       
  61 H61            8.8690     4.6212     0.5621 H       
  62 H62            7.4046     5.6317     0.6124 H       
  63 H63           -4.9451    13.6896     2.4616 H       
  64 H64           -3.4664    14.0816     1.5516 H       
  65 H65           -5.0490    14.1209     0.7379 H       
@<TRIPOS>BOND
   1    1    2 ar
   2    1    3 1
   3    1   32 ar
   4    2   29 ar
   5    2   37 1
   6    3    4 1
   7    3    5 2
   8    4   14 1
   9    4    7 1
  10    5    6 1
  11    5   38 1
  12    6    7 2
  13    6    8 1
  14    8    9 ar
  15    8   10 ar
  16    9   13 ar
  17    9   39 1
  18   10   11 ar
  19   10   40 1
  20   11   12 ar
  21   11   34 1
  22   12   13 ar
  23   12   33 1
  24   13   41 1
  25   14   15 1
  26   14   42 1
  27   14   43 1
  28   15   16 am
  29   15   17 2
  30   16   18 1
  31   16   22 1
  32   18   19 1
  33   18   44 1
  34   18   45 1
  35   19   20 1
  36   19   46 1
  37   19   47 1
  38   20   21 1
  39   20   23 1
  40   21   22 1
  41   21   48 1
  42   21   49 1
  43   22   50 1
  44   22   51 1
  45   23   24 ar
  46   23   28 ar
  47   24   25 ar
  48   24   52 1
  49   25   26 ar
  50   25   53 1
  51   26   27 ar
  52   26   54 1
  53   27   28 ar
  54   27   35 1
  55   28   55 1
  56   29   30 ar
  57   29   56 1
  58   30   31 ar
  59   30   57 1
  60   31   32 ar
  61   31   58 1
  62   32   59 1
  63   34   60 1
  64   34   61 1
  65   34   62 1
  66   35   36 1
  67   36   63 1
  68   36   64 1
  69   36   65 1

#	End of record

