#	Name: ASD03331014
#	Creating user name:	WinNT
#	Creation time:	15. 06. 2019 20:38

#	Modifying user name:	WinNT
#	Modification time:	15. 06. 2019 20:38

#	Program:	/corina/corina34_cracker 3.40 0067  02.08.2006

@<TRIPOS>MOLECULE
ASD03331014
  55   58    0    0    0
SMALL
NO_CHARGES


@<TRIPOS>ATOM
   1 N1            -0.0210     1.4677     0.1556 N.am    
   2 C2            -0.0021    -0.0018     0.1976 C.3     
   3 C3             1.4758    -0.4388     0.2780 C.3     
   4 C4             2.1803     0.8209     0.8472 C.3     
   5 C5             1.3687     1.9593     0.1801 C.3     
   6 C6             1.6357    -1.6083     1.2149 C.2     
   7 O7             2.3276    -1.5017     2.2053 O.2     
   8 N8             1.0098    -2.7727     0.9523 N.am    
   9 C9             1.1653    -3.9096     1.8631 C.3     
  10 C10           -1.1256     2.2378     0.0983 C.2     
  11 O11           -2.2265     1.7213     0.0774 O.2     
  12 N12           -1.4750     5.8407    -0.0298 N.pl3   
  13 C13           -2.0261     4.5978     0.0028 C.2     
  14 C14           -3.5008     4.2911    -0.0108 C.3     
  15 N15           -4.1480     5.0817    -1.0695 N.3     
  16 C16           -4.5743     6.3899    -0.5689 C.3     
  17 C17           -3.6070     6.9109     0.4902 C.3     
  18 C18           -2.2178     7.1006    -0.1249 C.3     
  19 C19           -0.1202     5.6887     0.0299 C.2     
  20 N20            0.1556     4.4064     0.0790 N.2     
  21 C21           -0.9996     3.7054     0.0611 C.2     
  22 C22           -5.2775     4.3494    -1.6575 C.3     
  23 C23            0.8715     6.7855     0.0380 C.ar    
  24 C24            1.9150     6.7808     0.9679 C.ar    
  25 C25            2.8388     7.8081     0.9702 C.ar    
  26 C26            2.7317     8.8408     0.0532 C.ar    
  27 C27            1.6976     8.8499    -0.8711 C.ar    
  28 C28            0.7724     7.8259    -0.8863 C.ar    
  29 F29            3.6376     9.8431     0.0595 F       
  30 F30            2.0198     5.7741     1.8628 F       
  31 Cl31           1.5707    10.1489    -2.0158 Cl      
  32 H32           -0.5413    -0.3544     1.0768 H       
  33 H33           -0.4591    -0.4043    -0.7064 H       
  34 H34            1.8606    -0.6814    -0.7125 H       
  35 H35            2.0908     0.8616     1.9328 H       
  36 H36            3.2259     0.8555     0.5414 H       
  37 H37            1.7264     2.1361    -0.8342 H       
  38 H38            1.4379     2.8718     0.7722 H       
  39 H39            0.4564    -2.8580     0.1602 H       
  40 H40            0.5898    -4.7563     1.4888 H       
  41 H41            2.2182    -4.1846     1.9244 H       
  42 H42            0.8035    -3.6337     2.8536 H       
  43 H43           -3.6503     3.2292    -0.2061 H       
  44 H44           -3.9358     4.5498     0.9546 H       
  45 H45           -4.6114     7.0960    -1.3984 H       
  46 H46           -5.5688     6.2994    -0.1321 H       
  47 H47           -3.9678     7.8660     0.8719 H       
  48 H48           -3.5460     6.1941     1.3091 H       
  49 H49           -1.6830     7.8808     0.4166 H       
  50 H50           -2.3188     7.3859    -1.1721 H       
  51 H51           -6.0135     4.1338    -0.8830 H       
  52 H52           -5.7377     4.9564    -2.4371 H       
  53 H53           -4.9194     3.4146    -2.0888 H       
  54 H54            3.6456     7.8062     1.6882 H       
  55 H55           -0.0294     7.8321    -1.6098 H       
@<TRIPOS>BOND
   1    1    2 1
   2    1    5 1
   3    1   10 am
   4    2    3 1
   5    2   32 1
   6    2   33 1
   7    3    4 1
   8    3    6 1
   9    3   34 1
  10    4    5 1
  11    4   35 1
  12    4   36 1
  13    5   37 1
  14    5   38 1
  15    6    7 2
  16    6    8 am
  17    8    9 1
  18    8   39 1
  19    9   40 1
  20    9   41 1
  21    9   42 1
  22   10   11 2
  23   10   21 1
  24   12   13 1
  25   12   18 1
  26   12   19 1
  27   13   14 1
  28   13   21 2
  29   14   15 1
  30   14   43 1
  31   14   44 1
  32   15   16 1
  33   15   22 1
  34   16   17 1
  35   16   45 1
  36   16   46 1
  37   17   18 1
  38   17   47 1
  39   17   48 1
  40   18   49 1
  41   18   50 1
  42   19   20 2
  43   19   23 1
  44   20   21 1
  45   22   51 1
  46   22   52 1
  47   22   53 1
  48   23   24 ar
  49   23   28 ar
  50   24   25 ar
  51   24   30 1
  52   25   26 ar
  53   25   54 1
  54   26   27 ar
  55   26   29 1
  56   27   28 ar
  57   27   31 1
  58   28   55 1

#	End of record

