#	Name: ASD01811246
#	Creating user name:	WinNT
#	Creation time:	15. 06. 2019 19:26

#	Modifying user name:	WinNT
#	Modification time:	15. 06. 2019 19:26

#	Program:	/corina/corina34_cracker 3.40 0067  02.08.2006

@<TRIPOS>MOLECULE
ASD01811246
  70   74    0    0    0
SMALL
NO_CHARGES


@<TRIPOS>ATOM
   1 C1            -7.9656     2.0861     2.4119 C.1     
   2 C2            -6.8023     2.8919     2.1928 C.ar    
   3 C3            -5.5534     2.4571     2.6411 C.ar    
   4 C4            -4.4369     3.2384     2.4268 C.ar    
   5 C5            -4.5526     4.4505     1.7697 C.ar    
   6 C6            -5.7871     4.8876     1.3232 C.ar    
   7 C7            -6.9108     4.1133     1.5249 C.ar    
   8 N8            -8.8884     1.4468     2.5856 N.1     
   9 N9            -1.8994     7.7396     1.5192 N.am    
  10 C10           -2.3845     7.2101     0.2374 C.3     
  11 C11           -3.6408     6.3718     0.4940 C.3     
  12 C12           -3.3284     5.2988     1.5396 C.3     
  13 C13           -2.9178     5.9683     2.8532 C.3     
  14 C14           -1.6534     6.8020     2.6233 C.3     
  15 F15           -2.2817     4.4918     1.0810 F       
  16 C16           -1.6789     9.0598     1.6774 C.2     
  17 C17           -1.2743     9.5888     2.9976 C.ar    
  18 C18           -2.0198    10.6025     3.6040 C.ar    
  19 C19           -1.6432    11.0974     4.8364 C.ar    
  20 C20           -0.5280    10.5948     5.4778 C.ar    
  21 C21            0.2259     9.5816     4.8829 C.ar    
  22 C22           -0.1519     9.0732     3.6422 C.ar    
  23 O23           -1.8127     9.8156     0.7349 O.2     
  24 C24           -3.2375    11.1576     2.9110 C.3     
  25 C25            1.4203     9.0449     5.5713 C.2     
  26 N26            1.8183     9.3634     6.7827 N.2     
  27 C27            2.9337     8.6841     7.0737 C.2     
  28 C28            3.2503     7.9126     6.0138 C.2     
  29 N29            2.2935     8.1304     5.0594 N.pl3   
  30 C30            3.7052     8.7675     8.3655 C.3     
  31 C31            4.4308     6.9823     5.9035 C.3     
  32 O32            4.4168     6.3447     4.6247 O.3     
  33 C33            5.5002     5.4366     4.4161 C.3     
  34 C34           -0.1239    11.1418     6.8226 C.3     
  35 C35            0.0824    12.6657     6.8311 C.3     
  36 C36           -0.6038    12.6720     8.2073 C.3     
  37 C37           -1.3093    11.3761     7.7739 C.3     
  38 H38           -5.4618     1.5115     3.1548 H       
  39 H39           -3.4703     2.9033     2.7730 H       
  40 H40           -5.8704     5.8350     0.8113 H       
  41 H41           -7.8730     4.4534     1.1716 H       
  42 H42           -2.6267     8.0362    -0.4311 H       
  43 H43           -1.6143     6.5852    -0.2147 H       
  44 H44           -4.4394     7.0163     0.8615 H       
  45 H45           -3.9556     5.8947    -0.4340 H       
  46 H46           -3.7232     6.6166     3.1984 H       
  47 H47           -2.7181     5.2040     3.6042 H       
  48 H48           -0.8236     6.1438     2.3657 H       
  49 H49           -1.4132     7.3589     3.5290 H       
  50 H50           -2.2230    11.8812     5.3010 H       
  51 H51            0.4252     8.2861     3.1799 H       
  52 H52           -4.1000    10.5293     3.1333 H       
  53 H53           -3.4259    12.1715     3.2640 H       
  54 H54           -3.0673    11.1734     1.8345 H       
  55 H55            2.2465     7.7147     4.1843 H       
  56 H56            3.3247     8.0229     9.0647 H       
  57 H57            4.7608     8.5775     8.1711 H       
  58 H58            3.5882     9.7624     8.7950 H       
  59 H59            5.3536     7.5514     6.0157 H       
  60 H60            4.3724     6.2267     6.6868 H       
  61 H61            5.4178     4.9945     3.4232 H       
  62 H62            6.4453     5.9736     4.4975 H       
  63 H63            5.4640     4.6489     5.1687 H       
  64 H64            0.6981    10.5874     7.2754 H       
  65 H65            1.1302    12.9643     6.8643 H       
  66 H66           -0.4831    13.1872     6.0588 H       
  67 H67            0.0863    12.5360     9.0399 H       
  68 H68           -1.2836    13.5116     8.3524 H       
  69 H69           -2.2553    11.5449     7.2594 H       
  70 H70           -1.3850    10.6335     8.5682 H       
@<TRIPOS>BOND
   1    1    2 1
   2    1    8 3
   3    2    3 ar
   4    2    7 ar
   5    3    4 ar
   6    3   38 1
   7    4    5 ar
   8    4   39 1
   9    5    6 ar
  10    5   12 1
  11    6    7 ar
  12    6   40 1
  13    7   41 1
  14    9   10 1
  15    9   14 1
  16    9   16 am
  17   10   11 1
  18   10   42 1
  19   10   43 1
  20   11   12 1
  21   11   44 1
  22   11   45 1
  23   12   13 1
  24   12   15 1
  25   13   14 1
  26   13   46 1
  27   13   47 1
  28   14   48 1
  29   14   49 1
  30   16   17 1
  31   16   23 2
  32   17   18 ar
  33   17   22 ar
  34   18   19 ar
  35   18   24 1
  36   19   20 ar
  37   19   50 1
  38   20   21 ar
  39   20   34 1
  40   21   22 ar
  41   21   25 1
  42   22   51 1
  43   24   52 1
  44   24   53 1
  45   24   54 1
  46   25   26 2
  47   25   29 1
  48   26   27 1
  49   27   28 2
  50   27   30 1
  51   28   29 1
  52   28   31 1
  53   29   55 1
  54   30   56 1
  55   30   57 1
  56   30   58 1
  57   31   32 1
  58   31   59 1
  59   31   60 1
  60   32   33 1
  61   33   61 1
  62   33   62 1
  63   33   63 1
  64   34   35 1
  65   34   37 1
  66   34   64 1
  67   35   36 1
  68   35   65 1
  69   35   66 1
  70   36   37 1
  71   36   67 1
  72   36   68 1
  73   37   69 1
  74   37   70 1

#	End of record

