#	Name: ASD03430605
#	Creating user name:	WinNT
#	Creation time:	15. 06. 2019 20:41

#	Modifying user name:	WinNT
#	Modification time:	15. 06. 2019 20:41

#	Program:	/corina/corina34_cracker 3.40 0067  02.08.2006

@<TRIPOS>MOLECULE
ASD03430605
  58   63    0    0    0
SMALL
NO_CHARGES


@<TRIPOS>ATOM
   1 N1            -0.3516     1.7009     0.7960 N.am    
   2 C2            -0.1624     0.5936     1.5334 C.2     
   3 C3             1.2622     0.1390     1.2970 C.3     
   4 C4             1.8167     1.1571     0.3275 C.ar    
   5 C5             3.0464     1.3047    -0.2739 C.ar    
   6 C6             3.2689     2.3612    -1.1397 C.ar    
   7 C7             2.2542     3.2650    -1.3972 C.ar    
   8 C8             1.0213     3.1194    -0.7960 C.ar    
   9 C9             0.7896     2.0581     0.0770 C.ar    
  10 O10           -0.9792     0.0591     2.2532 O.2     
  11 O11            2.0026     0.1563     2.5191 O.3     
  12 C12           -1.6131     2.4441     0.7477 C.3     
  13 C13           -1.8485     2.9436    -0.6545 C.ar    
  14 C14           -2.2703     4.2433    -0.8635 C.ar    
  15 C15           -2.4862     4.7015    -2.1498 C.ar    
  16 C16           -2.2801     3.8600    -3.2269 C.ar    
  17 C17           -1.8575     2.5605    -3.0179 C.ar    
  18 C18           -1.6373     2.1037    -1.7319 C.ar    
  19 C19           -2.7461     1.5377     1.1550 C.ar    
  20 C20           -3.6057     1.9184     2.1684 C.ar    
  21 C21           -4.6449     1.0870     2.5420 C.ar    
  22 C22           -4.8248    -0.1249     1.9019 C.ar    
  23 C23           -3.9657    -0.5052     0.8878 C.ar    
  24 C24           -2.9291     0.3282     0.5113 C.ar    
  25 O25            1.0109    -2.8304    -2.5910 O.3     
  26 C26            0.4725    -1.7257    -3.3255 C.3     
  27 C27            1.1906    -0.4489    -2.8677 C.3     
  28 O28            0.9642    -0.2863    -1.4635 O.3     
  29 C29            1.1320    -1.3901    -0.6846 C.ar    
  30 C30            1.1531    -2.6610    -1.2469 C.ar    
  31 C31            1.2823    -1.2382     0.6854 C.ar    
  32 C32            1.4516    -2.3523     1.4929 C.ar    
  33 C33            1.4705    -3.6203     0.9300 C.ar    
  34 C34            1.3213    -3.7733    -0.4363 C.ar    
  35 O35            1.5996    -2.2023     2.8365 O.3     
  36 Cl36           1.6808    -5.0155     1.9414 Cl      
  37 H37            3.8364     0.5970    -0.0700 H       
  38 H38            4.2326     2.4797    -1.6127 H       
  39 H39            2.4283     4.0896    -2.0726 H       
  40 H40            0.2340     3.8294    -1.0022 H       
  41 H41            1.5572    -0.2853     3.2552 H       
  42 H42           -1.5620     3.2915     1.4315 H       
  43 H43           -2.4313     4.9008    -0.0220 H       
  44 H44           -2.8164     5.7167    -2.3131 H       
  45 H45           -2.4495     4.2177    -4.2318 H       
  46 H46           -1.6967     1.9030    -3.8594 H       
  47 H47           -1.3036     1.0896    -1.5688 H       
  48 H48           -3.4652     2.8653     2.6685 H       
  49 H49           -5.3161     1.3841     3.3342 H       
  50 H50           -5.6363    -0.7749     2.1942 H       
  51 H51           -4.1060    -1.4522     0.3880 H       
  52 H52           -2.2601     0.0327    -0.2834 H       
  53 H53            0.6374    -1.8780    -4.3921 H       
  54 H54           -0.5957    -1.6379    -3.1270 H       
  55 H55            2.2598    -0.5397    -3.0594 H       
  56 H56            0.7917     0.4105    -3.4065 H       
  57 H57            1.3357    -4.7610    -0.8727 H       
  58 H58            0.7669    -2.2173     3.3280 H       
@<TRIPOS>BOND
   1    1    2 am
   2    1    9 1
   3    1   12 1
   4    2    3 1
   5    2   10 2
   6    3    4 1
   7    3   11 1
   8    3   31 1
   9    4    5 ar
  10    4    9 ar
  11    5    6 ar
  12    5   37 1
  13    6    7 ar
  14    6   38 1
  15    7    8 ar
  16    7   39 1
  17    8    9 ar
  18    8   40 1
  19   11   41 1
  20   12   13 1
  21   12   19 1
  22   12   42 1
  23   13   14 ar
  24   13   18 ar
  25   14   15 ar
  26   14   43 1
  27   15   16 ar
  28   15   44 1
  29   16   17 ar
  30   16   45 1
  31   17   18 ar
  32   17   46 1
  33   18   47 1
  34   19   20 ar
  35   19   24 ar
  36   20   21 ar
  37   20   48 1
  38   21   22 ar
  39   21   49 1
  40   22   23 ar
  41   22   50 1
  42   23   24 ar
  43   23   51 1
  44   24   52 1
  45   25   26 1
  46   25   30 1
  47   26   27 1
  48   26   53 1
  49   26   54 1
  50   27   28 1
  51   27   55 1
  52   27   56 1
  53   28   29 1
  54   29   30 ar
  55   29   31 ar
  56   30   34 ar
  57   31   32 ar
  58   32   33 ar
  59   32   35 1
  60   33   34 ar
  61   33   36 1
  62   34   57 1
  63   35   58 1

#	End of record

