#	Name: ASD07301053
#	Creating user name:	WinNT
#	Creation time:	15. 06. 2019 21:10

#	Modifying user name:	WinNT
#	Modification time:	15. 06. 2019 21:10

#	Program:	/corina/corina34_cracker 3.40 0067  02.08.2006

@<TRIPOS>MOLECULE
ASD07301053
  37   38    0    0    0
SMALL
NO_CHARGES


@<TRIPOS>ATOM
   1 C1            -0.1418     1.5012     0.0177 C.3     
   2 C2            -0.1143    -0.0055     0.0085 C.2     
   3 C3             0.0232    -0.7425     1.2656 C.2     
   4 C4             0.0499    -2.2059     1.2567 C.2     
   5 C5             1.3684    -2.9354     1.2355 C.3     
   6 O6            -0.2062    -0.6077    -1.0411 O.2     
   7 O7            -0.9898    -2.8319     1.2664 O.2     
   8 N8             0.1234    -0.0857     2.4104 N.2     
   9 N9             0.1407    -0.7330     3.5261 N.pl3   
  10 C10            0.1588    -0.7394     5.9472 C.ar    
  11 C11            0.1401    -0.0394     4.7336 C.ar    
  12 C12            0.1215     1.3489     4.7403 C.ar    
  13 C13            0.1215     2.0345     5.9394 C.ar    
  14 C14            0.1399     1.3446     7.1392 C.ar    
  15 C15            0.1586    -0.0358     7.1486 C.ar    
  16 C16            0.1727    -2.2221     5.9520 C.ar    
  17 C17            1.1105    -2.9105     6.7200 C.ar    
  18 C18            1.1187    -4.2905     6.7206 C.ar    
  19 C19            0.1987    -4.9906     5.9610 C.ar    
  20 C20           -0.7343    -4.3128     5.1970 C.ar    
  21 C21           -0.7557    -2.9329     5.1931 C.ar    
  22 H22            0.8741     1.8838    -0.0807 H       
  23 H23           -0.7469     1.8587    -0.8155 H       
  24 H24           -0.5725     1.8511     0.9559 H       
  25 H25            2.1807    -2.2149     1.1398 H       
  26 H26            1.4880    -3.4968     2.1622 H       
  27 H27            1.3902    -3.6221     0.3893 H       
  28 H28            0.1540    -1.7029     3.5239 H       
  29 H29            0.1074     1.8931     3.8075 H       
  30 H30            0.1073     3.1144     5.9409 H       
  31 H31            0.1398     1.8886     8.0721 H       
  32 H32            0.1733    -0.5696     8.0874 H       
  33 H33            1.8295    -2.3649     7.3131 H       
  34 H34            1.8451    -4.8249     7.3149 H       
  35 H35            0.2090    -6.0705     5.9642 H       
  36 H36           -1.4502    -4.8646     4.6059 H       
  37 H37           -1.4873    -2.4048     4.5997 H       
@<TRIPOS>BOND
   1    1    2 1
   2    1   22 1
   3    1   23 1
   4    1   24 1
   5    2    3 1
   6    2    6 2
   7    3    4 1
   8    3    8 2
   9    4    5 1
  10    4    7 2
  11    5   25 1
  12    5   26 1
  13    5   27 1
  14    8    9 1
  15    9   11 1
  16    9   28 1
  17   10   11 ar
  18   10   15 ar
  19   10   16 1
  20   11   12 ar
  21   12   13 ar
  22   12   29 1
  23   13   14 ar
  24   13   30 1
  25   14   15 ar
  26   14   31 1
  27   15   32 1
  28   16   17 ar
  29   16   21 ar
  30   17   18 ar
  31   17   33 1
  32   18   19 ar
  33   18   34 1
  34   19   20 ar
  35   19   35 1
  36   20   21 ar
  37   20   36 1
  38   21   37 1

#	End of record

