#	Name: ASD01913176
#	Creating user name:	WinNT
#	Creation time:	15. 06. 2019 20:01

#	Modifying user name:	WinNT
#	Modification time:	15. 06. 2019 20:01

#	Program:	/corina/corina34_cracker 3.40 0067  02.08.2006

@<TRIPOS>MOLECULE
ASD01913176
  52   56    0    0    0
SMALL
NO_CHARGES


@<TRIPOS>ATOM
   1 N1             2.1123    -3.7393    -3.8903 N.pl3   
   2 C2             1.7566    -3.4286    -2.6030 C.2     
   3 C3             0.4190    -3.5492    -2.4602 C.2     
   4 C4            -0.1132    -3.9687    -3.7390 C.ar    
   5 C5            -1.4095    -4.2493    -4.1820 C.ar    
   6 C6            -1.5483    -4.6299    -5.4938 C.ar    
   7 C7            -0.4630    -4.7351    -6.3484 C.ar    
   8 C8             0.8302    -4.4633    -5.9368 C.ar    
   9 C9             1.0018    -4.0742    -4.6099 C.ar    
  10 C10           -0.3238    -3.2763    -1.1750 C.3     
  11 C11            2.6931    -3.0180    -1.4914 C.3     
  12 C12            1.8832    -2.3393    -0.3810 C.3     
  13 N13            0.6804    -3.1393    -0.1052 N.am    
  14 C14            0.5013    -3.7304     1.0927 C.2     
  15 C15           -0.7703    -4.4173     1.3942 C.ar    
  16 C16           -0.7716    -5.5678     2.1816 C.ar    
  17 C17           -1.9747    -6.2113     2.4631 C.ar    
  18 C18           -3.1771    -5.6959     1.9514 C.ar    
  19 C19           -3.1636    -4.5506     1.1687 C.ar    
  20 C20           -1.9743    -3.9106     0.8948 C.ar    
  21 O21            1.3870    -3.6980     1.9250 O.2     
  22 C22           -1.9855    -7.3939     3.2705 C.1     
  23 C23           -1.9943    -8.3634     3.9325 C.1     
  24 C24           -2.0052    -9.5460     4.7399 C.ar    
  25 C25           -3.2165   -10.1856     5.0177 C.ar    
  26 C26           -3.2094   -11.3264     5.7989 C.ar    
  27 C27           -1.9933   -11.7943     6.2793 C.ar    
  28 C28           -0.8314   -11.1130     5.9665 C.ar    
  29 N29           -0.8621   -10.0310     5.2157 N.ar    
  30 O30           -4.3512    -6.3183     2.2223 O.3     
  31 C31           -5.5349    -5.7393     1.6696 C.3     
  32 H32            3.0174    -3.7200    -4.2387 H       
  33 H33           -2.2615    -4.1705    -3.5230 H       
  34 H34           -2.5348    -4.8549    -5.8714 H       
  35 H35           -0.6318    -5.0399    -7.3706 H       
  36 H36            1.6679    -4.5493    -6.6130 H       
  37 H37           -0.8957    -2.3529    -1.2667 H       
  38 H38           -0.9932    -4.1068    -0.9506 H       
  39 H39            3.1928    -3.9001    -1.0911 H       
  40 H40            3.4358    -2.3208    -1.8792 H       
  41 H41            2.4897    -2.2700     0.5220 H       
  42 H42            1.5904    -1.3398    -0.7024 H       
  43 H43            0.1565    -5.9590     2.5715 H       
  44 H44           -4.0893    -4.1564     0.7761 H       
  45 H45           -1.9715    -3.0166     0.2888 H       
  46 H46           -4.1446    -9.7942     4.6280 H       
  47 H47           -4.1296   -11.8421     6.0308 H       
  48 H48           -1.9554   -12.6826     6.8923 H       
  49 H49            0.1151   -11.4756     6.3393 H       
  50 H50           -5.6500    -4.7216     2.0427 H       
  51 H51           -5.4571    -5.7210     0.5825 H       
  52 H52           -6.4007    -6.3335     1.9619 H       
@<TRIPOS>BOND
   1    1    2 1
   2    1    9 1
   3    1   32 1
   4    2    3 2
   5    2   11 1
   6    3    4 1
   7    3   10 1
   8    4    5 ar
   9    4    9 ar
  10    5    6 ar
  11    5   33 1
  12    6    7 ar
  13    6   34 1
  14    7    8 ar
  15    7   35 1
  16    8    9 ar
  17    8   36 1
  18   10   13 1
  19   10   37 1
  20   10   38 1
  21   11   12 1
  22   11   39 1
  23   11   40 1
  24   12   13 1
  25   12   41 1
  26   12   42 1
  27   13   14 am
  28   14   15 1
  29   14   21 2
  30   15   16 ar
  31   15   20 ar
  32   16   17 ar
  33   16   43 1
  34   17   18 ar
  35   17   22 1
  36   18   19 ar
  37   18   30 1
  38   19   20 ar
  39   19   44 1
  40   20   45 1
  41   22   23 3
  42   23   24 1
  43   24   25 ar
  44   24   29 ar
  45   25   26 ar
  46   25   46 1
  47   26   27 ar
  48   26   47 1
  49   27   28 ar
  50   27   48 1
  51   28   29 ar
  52   28   49 1
  53   30   31 1
  54   31   50 1
  55   31   51 1
  56   31   52 1

#	End of record

