#	Name: ASD03090759
#	Creating user name:	WinNT
#	Creation time:	15. 06. 2019 20:29

#	Modifying user name:	WinNT
#	Modification time:	15. 06. 2019 20:29

#	Program:	/corina/corina34_cracker 3.40 0067  02.08.2006

@<TRIPOS>MOLECULE
ASD03090759
  43   45    0    0    0
SMALL
NO_CHARGES


@<TRIPOS>ATOM
   1 C1             0.0477     1.4137    -0.3049 C.3     
   2 O2             0.0445    -0.0119    -0.2068 O.3     
   3 C3             0.7532    -0.5616     0.8142 C.ar    
   4 C4             1.4374     0.2542     1.7032 C.ar    
   5 C5             2.1572    -0.3072     2.7404 C.ar    
   6 C6             2.1959    -1.6807     2.8926 C.ar    
   7 C7             1.5150    -2.4962     2.0074 C.ar    
   8 C8             0.7889    -1.9397     0.9725 C.ar    
   9 C9             0.0467    -2.8289     0.0085 C.3     
  10 N10            0.7112    -4.1325    -0.0640 N.am    
  11 C11            0.6157    -4.8762    -1.1840 C.2     
  12 O12           -0.0204    -4.4662    -2.1317 O.2     
  13 C13            1.2993    -6.2172    -1.2586 C.3     
  14 C14            0.4105    -7.4620    -1.2972 C.3     
  15 C15            1.1535    -7.0131    -2.5571 C.3     
  16 C16            2.3318    -7.8406    -3.0020 C.ar    
  17 C17            2.9297    -7.5914    -4.2232 C.ar    
  18 C18            4.0105    -8.3505    -4.6313 C.ar    
  19 C19            4.4937    -9.3584    -3.8180 C.ar    
  20 C20            3.8965    -9.6070    -2.5964 C.ar    
  21 C21            2.8184    -8.8451    -2.1864 C.ar    
  22 C22           -1.3926    -3.0164     0.4924 C.3     
  23 H23            1.0707     1.7667    -0.4351 H       
  24 H24           -0.5541     1.7203    -1.1604 H       
  25 H25           -0.3712     1.8415     0.6060 H       
  26 H26            1.4078     1.3272     1.5846 H       
  27 H27            2.6904     0.3276     3.4327 H       
  28 H28            2.7591    -2.1175     3.7040 H       
  29 H29            1.5470    -3.5689     2.1281 H       
  30 H30            0.0407    -2.3687    -0.9795 H       
  31 H31            1.2199    -4.4604     0.6940 H       
  32 H32            2.2472    -6.2919    -0.7258 H       
  33 H33            0.7740    -8.3558    -0.7901 H       
  34 H34           -0.6686    -7.3110    -1.2686 H       
  35 H35            0.5632    -6.5669    -3.3574 H       
  36 H36            2.5521    -6.8040    -4.8586 H       
  37 H37            4.4771    -8.1563    -5.5858 H       
  38 H38            5.3377    -9.9519    -4.1372 H       
  39 H39            4.2738   -10.3947    -1.9612 H       
  40 H40            2.3517    -9.0393    -1.2319 H       
  41 H41           -1.3867    -3.4767     1.4805 H       
  42 H42           -1.8871    -2.0465     0.5464 H       
  43 H43           -1.9295    -3.6596    -0.2048 H       
@<TRIPOS>BOND
   1    1    2 1
   2    1   23 1
   3    1   24 1
   4    1   25 1
   5    2    3 1
   6    3    4 ar
   7    3    8 ar
   8    4    5 ar
   9    4   26 1
  10    5    6 ar
  11    5   27 1
  12    6    7 ar
  13    6   28 1
  14    7    8 ar
  15    7   29 1
  16    8    9 1
  17    9   10 1
  18    9   22 1
  19    9   30 1
  20   10   11 am
  21   10   31 1
  22   11   12 2
  23   11   13 1
  24   13   14 1
  25   13   15 1
  26   13   32 1
  27   14   15 1
  28   14   33 1
  29   14   34 1
  30   15   16 1
  31   15   35 1
  32   16   17 ar
  33   16   21 ar
  34   17   18 ar
  35   17   36 1
  36   18   19 ar
  37   18   37 1
  38   19   20 ar
  39   19   38 1
  40   20   21 ar
  41   20   39 1
  42   21   40 1
  43   22   41 1
  44   22   42 1
  45   22   43 1

#	End of record

