#	Name: ASD03430939
#	Creating user name:	WinNT
#	Creation time:	15. 06. 2019 20:41

#	Modifying user name:	WinNT
#	Modification time:	15. 06. 2019 20:41

#	Program:	/corina/corina34_cracker 3.40 0067  02.08.2006

@<TRIPOS>MOLECULE
ASD03430939
  50   55    0    0    0
SMALL
NO_CHARGES


@<TRIPOS>ATOM
   1 C1            -0.0187     1.5305     0.0105 C.3     
   2 C2             0.0021    -0.0041     0.0020 C.3     
   3 C3             0.6601    -0.4813     1.2950 C.3     
   4 C4             1.9338     0.2777     1.5481 C.ar    
   5 C5             2.8569    -0.2353     2.4453 C.ar    
   6 C6             4.0283     0.4405     2.6995 C.ar    
   7 C7             4.3018     1.6487     2.0695 C.ar    
   8 C8             3.3778     2.1576     1.1647 C.ar    
   9 C9             2.1980     1.4741     0.9016 C.ar    
  10 O10            1.3290     2.0020     0.0001 O.3     
  11 O11            5.4954     2.1589     2.4807 O.3     
  12 C12            5.2113     0.1289     3.5959 C.3     
  13 C13            6.2844     1.1065     3.0612 C.3     
  14 N14           -0.5201    -1.5183     2.9808 N.am    
  15 C15           -0.2917    -0.2956     2.4581 C.2     
  16 C16            0.9133    -1.9554     1.2556 C.ar    
  17 C17            1.6918    -2.7268     0.4199 C.ar    
  18 C18            1.7094    -4.0965     0.6602 C.ar    
  19 C19            0.9792    -4.6552     1.6894 C.ar    
  20 C20            0.1941    -3.8859     2.5338 C.ar    
  21 C21            0.1672    -2.5095     2.3030 C.ar    
  22 O22           -0.7596     0.7537     2.8467 O.2     
  23 C23           -1.3926    -1.7671     4.1311 C.3     
  24 O24           -3.7455    -1.0856     3.4666 O.3     
  25 C25           -2.7982    -2.0198     3.6501 C.2     
  26 C26           -3.3168    -3.2193     3.3313 C.2     
  27 C27           -4.6545    -2.9943     2.9325 C.2     
  28 C28           -4.8733    -1.6708     3.0314 C.2     
  29 C29           -6.1648    -0.9645     2.7088 C.3     
  30 F30           -6.9628    -0.9045     3.8563 F       
  31 F31           -5.8884     0.3331     2.2647 F       
  32 F32           -6.8422    -1.6662     1.7058 F       
  33 H33           -0.5409     1.8945    -0.8744 H       
  34 H34           -0.5239     1.8849     0.9090 H       
  35 H35           -1.0176    -0.3851    -0.0537 H       
  36 H36            0.5750    -0.3591    -0.8546 H       
  37 H37            2.6558    -1.1699     2.9478 H       
  38 H38            3.5787     3.0924     0.6624 H       
  39 H39            4.9762     0.3411     4.6389 H       
  40 H40            5.5313    -0.9058     3.4730 H       
  41 H41            6.9026     0.6246     2.3037 H       
  42 H42            6.8987     1.4891     3.8763 H       
  43 H43            2.2621    -2.2876    -0.3852 H       
  44 H44            2.3069    -4.7365     0.0279 H       
  45 H45            1.0209    -5.7236     1.8415 H       
  46 H46           -0.3736    -4.3328     3.3365 H       
  47 H47           -1.0334    -2.6390     4.6777 H       
  48 H48           -1.3843    -0.8975     4.7882 H       
  49 H49           -2.8088    -4.1715     3.3716 H       
  50 H50           -5.3643    -3.7417     2.6100 H       
@<TRIPOS>BOND
   1    1    2 1
   2    1   10 1
   3    1   33 1
   4    1   34 1
   5    2    3 1
   6    2   35 1
   7    2   36 1
   8    3    4 1
   9    3   15 1
  10    3   16 1
  11    4    5 ar
  12    4    9 ar
  13    5    6 ar
  14    5   37 1
  15    6    7 ar
  16    6   12 1
  17    7    8 ar
  18    7   11 1
  19    8    9 ar
  20    8   38 1
  21    9   10 1
  22   11   13 1
  23   12   13 1
  24   12   39 1
  25   12   40 1
  26   13   41 1
  27   13   42 1
  28   14   15 am
  29   14   21 1
  30   14   23 1
  31   15   22 2
  32   16   17 ar
  33   16   21 ar
  34   17   18 ar
  35   17   43 1
  36   18   19 ar
  37   18   44 1
  38   19   20 ar
  39   19   45 1
  40   20   21 ar
  41   20   46 1
  42   23   25 1
  43   23   47 1
  44   23   48 1
  45   24   25 1
  46   24   28 1
  47   25   26 2
  48   26   27 1
  49   26   49 1
  50   27   28 2
  51   27   50 1
  52   28   29 1
  53   29   30 1
  54   29   31 1
  55   29   32 1

#	End of record

