#	Name: ASD05380281
#	Creating user name:	WinNT
#	Creation time:	15. 06. 2019 20:59

#	Modifying user name:	WinNT
#	Modification time:	15. 06. 2019 20:59

#	Program:	/corina/corina34_cracker 3.40 0067  02.08.2006

@<TRIPOS>MOLECULE
ASD05380281
  56   60    0    0    0
SMALL
NO_CHARGES


@<TRIPOS>ATOM
   1 C1            -0.2692     4.9612    -2.0636 C.ar    
   2 C2            -0.9137     3.7767    -2.3943 C.ar    
   3 C3            -0.2694     2.5656    -2.2746 C.ar    
   4 C4             1.0484     2.5259    -1.8152 C.ar    
   5 C5             1.7012     3.7332    -1.4796 C.ar    
   6 C6             1.0313     4.9479    -1.6080 C.ar    
   7 N7             1.7203     1.3551    -1.6818 N.2     
   8 C8             2.9457     1.3184    -1.2542 C.2     
   9 N9             3.6505     2.4296    -0.9083 N.am    
  10 C10            3.0883     3.6575    -0.9986 C.2     
  11 C11            3.6215    -0.0232    -1.1344 C.3     
  12 C12            6.0272     2.4364    -1.3444 C.ar    
  13 C13            4.9694     2.3017    -0.4548 C.ar    
  14 C14            7.5750     2.0500     0.4412 C.ar    
  15 C15            6.5239     1.9153     1.3295 C.ar    
  16 C16            5.2221     2.0404     0.8854 C.ar    
  17 N17            2.7121    -1.0718    -1.6032 N.2     
  18 O18            3.7072     4.6602    -0.6929 O.2     
  19 C19            7.3267     2.3102    -0.8941 C.ar    
  20 C20            1.7239     6.2380    -1.2517 C.3     
  21 C21            3.0356    -1.8023    -2.6319 C.2     
  22 C22            4.2371    -1.4664    -3.4304 C.ar    
  23 C23            2.2019    -2.9690    -3.0032 C.ar    
  24 C24            5.1635    -2.4581    -3.7525 C.ar    
  25 C25            4.4438    -0.1582    -3.8680 C.ar    
  26 C26            5.5649     0.1485    -4.6114 C.ar    
  27 C27            6.4829    -0.8385    -4.9233 C.ar    
  28 C28            6.2808    -2.1390    -4.4966 C.ar    
  29 C29            1.1576    -3.3760    -2.1730 C.ar    
  30 C30            0.3846    -4.4637    -2.5243 C.ar    
  31 C31            0.6440    -5.1504    -3.6970 C.ar    
  32 C32            1.6787    -4.7518    -4.5243 C.ar    
  33 C33            2.4545    -3.6617    -4.1872 C.ar    
  34 H34           -0.7901     5.9014    -2.1686 H       
  35 H35           -1.9332     3.8055    -2.7495 H       
  36 H36           -0.7811     1.6507    -2.5345 H       
  37 H37            4.5269    -0.0295    -1.7413 H       
  38 H38            3.8816    -0.2073    -0.0920 H       
  39 H39            5.8337     2.6353    -2.3882 H       
  40 H40            8.5921     1.9521     0.7910 H       
  41 H41            6.7211     1.7118     2.3717 H       
  42 H42            4.4016     1.9355     1.5797 H       
  43 H43            8.1497     2.4149    -1.5854 H       
  44 H44            2.3204     6.5762    -2.0990 H       
  45 H45            0.9787     6.9949    -1.0069 H       
  46 H46            2.3735     6.0761    -0.3915 H       
  47 H47            5.0068    -3.4736    -3.4200 H       
  48 H48            3.7275     0.6130    -3.6258 H       
  49 H49            5.7261     1.1610    -4.9509 H       
  50 H50            7.3588    -0.5937    -5.5058 H       
  51 H51            7.0011    -2.9051    -4.7429 H       
  52 H52            0.9546    -2.8412    -1.2570 H       
  53 H53           -0.4243    -4.7798    -1.8823 H       
  54 H54            0.0364    -6.0013    -3.9675 H       
  55 H55            1.8766    -5.2921    -5.4383 H       
  56 H56            3.2618    -3.3513    -4.8340 H       
@<TRIPOS>BOND
   1    1    2 ar
   2    1    6 ar
   3    1   34 1
   4    2    3 ar
   5    2   35 1
   6    3    4 ar
   7    3   36 1
   8    4    5 ar
   9    4    7 1
  10    5    6 ar
  11    5   10 1
  12    6   20 1
  13    7    8 2
  14    8    9 1
  15    8   11 1
  16    9   10 am
  17    9   13 1
  18   10   18 2
  19   11   17 1
  20   11   37 1
  21   11   38 1
  22   12   13 ar
  23   12   19 ar
  24   12   39 1
  25   13   16 ar
  26   14   15 ar
  27   14   19 ar
  28   14   40 1
  29   15   16 ar
  30   15   41 1
  31   16   42 1
  32   17   21 2
  33   19   43 1
  34   20   44 1
  35   20   45 1
  36   20   46 1
  37   21   22 1
  38   21   23 1
  39   22   24 ar
  40   22   25 ar
  41   23   29 ar
  42   23   33 ar
  43   24   28 ar
  44   24   47 1
  45   25   26 ar
  46   25   48 1
  47   26   27 ar
  48   26   49 1
  49   27   28 ar
  50   27   50 1
  51   28   51 1
  52   29   30 ar
  53   29   52 1
  54   30   31 ar
  55   30   53 1
  56   31   32 ar
  57   31   54 1
  58   32   33 ar
  59   32   55 1
  60   33   56 1

#	End of record

