#	Name: ASD01020021
#	Creating user name:	WinNT
#	Creation time:	15. 06. 2019 18:56

#	Modifying user name:	WinNT
#	Modification time:	15. 06. 2019 18:56

#	Program:	/corina/corina34_cracker 3.40 0067  02.08.2006

@<TRIPOS>MOLECULE
ASD01020021
  54   59    0    0    0
SMALL
NO_CHARGES


@<TRIPOS>ATOM
   1 F1             4.9982     8.3208     0.5604 F       
   2 C2             4.4157     7.4231    -0.2643 C.ar    
   3 C3             4.4757     7.6017    -1.6358 C.ar    
   4 C4             3.8794     6.6827    -2.4786 C.ar    
   5 C5             3.2234     5.5857    -1.9525 C.ar    
   6 C6             3.1628     5.4063    -0.5829 C.ar    
   7 C7             3.7632     6.3206     0.2614 C.ar    
   8 C8             2.4472     4.2097    -0.0109 C.3     
   9 N9             3.3722     3.4417     0.8263 N.am    
  10 C10            4.1441     3.9726     1.9554 C.3     
  11 C11            4.9455     2.8164     2.5004 C.ar    
  12 C12            5.8404     2.6998     3.5399 C.ar    
  13 C13            6.4346     1.4810     3.8106 C.ar    
  14 C14            6.1292     0.3664     3.0307 C.ar    
  15 C15            5.2259     0.4785     1.9788 C.ar    
  16 C16            4.6279     1.7085     1.7092 C.ar    
  17 C17            3.6488     2.1335     0.6900 C.2     
  18 O18            3.1642     1.4053    -0.1541 O.2     
  19 C19            6.7685    -0.9406     3.3228 C.ar    
  20 C20            6.4661    -2.0569     2.5366 C.ar    
  21 C21            7.0453    -3.2666     2.7916 C.ar    
  22 C22            7.9482    -3.4030     3.8420 C.ar    
  23 N23            8.6744    -4.4660     4.3310 N.pl3   
  24 H24            8.6551    -5.3664     3.9708 H       
  25 C25            9.4276    -4.0633     5.3999 C.2     
  26 C26            9.2238    -2.7583     5.6384 C.2     
  27 C27            8.2608    -2.2862     4.6400 C.ar    
  28 C28            7.6701    -1.0517     4.3724 C.ar    
  29 C29            1.2812     4.6733     0.8237 C.2     
  30 O30            1.2281     4.3901     2.0018 O.2     
  31 N31            0.2975     5.4027     0.2609 N.am    
  32 C32           -0.7780     5.8304     1.0307 C.2     
  33 N33           -0.9288     5.5883     2.2951 N.2     
  34 C34           -2.0136     6.0720     2.8709 C.2     
  35 C35           -2.8176     6.7553     2.0540 C.2     
  36 S36           -2.0909     6.7585     0.4492 S.3     
  37 H37            4.9879     8.4589    -2.0471 H       
  38 H38            3.9257     6.8220    -3.5486 H       
  39 H39            2.7574     4.8683    -2.6118 H       
  40 H40            3.7196     6.1779     1.3310 H       
  41 H41            2.0848     3.5803    -0.8237 H       
  42 H42            4.8121     4.7632     1.6136 H       
  43 H43            3.4708     4.3560     2.7220 H       
  44 H44            6.0791     3.5620     4.1449 H       
  45 H45            7.1364     1.3924     4.6267 H       
  46 H46            4.9886    -0.3840     1.3737 H       
  47 H47            5.7666    -1.9611     1.7193 H       
  48 H48            6.8018    -4.1203     2.1767 H       
  49 H49           10.0882    -4.7014     5.9681 H       
  50 H50            9.6820    -2.1683     6.4183 H       
  51 H51            7.9093    -0.1905     4.9786 H       
  52 H52            0.3400     5.6292    -0.6813 H       
  53 H53           -2.2327     5.9265     3.9184 H       
  54 H54           -3.7489     7.2277     2.3296 H       
@<TRIPOS>BOND
   1    1    2 1
   2    2    7 ar
   3    2    3 ar
   4    3    4 ar
   5    3   37 1
   6    4    5 ar
   7    4   38 1
   8    5    6 ar
   9    5   39 1
  10    6    7 ar
  11    6    8 1
  12    7   40 1
  13    8    9 1
  14    8   29 1
  15    8   41 1
  16    9   17 am
  17    9   10 1
  18   10   11 1
  19   10   42 1
  20   10   43 1
  21   11   16 ar
  22   11   12 ar
  23   12   13 ar
  24   12   44 1
  25   13   14 ar
  26   13   45 1
  27   14   15 ar
  28   14   19 1
  29   15   16 ar
  30   15   46 1
  31   16   17 1
  32   17   18 2
  33   19   28 ar
  34   19   20 ar
  35   20   21 ar
  36   20   47 1
  37   21   22 ar
  38   21   48 1
  39   22   27 ar
  40   22   23 1
  41   23   24 1
  42   23   25 1
  43   25   26 2
  44   25   49 1
  45   26   27 1
  46   26   50 1
  47   27   28 ar
  48   28   51 1
  49   29   30 2
  50   29   31 am
  51   31   32 1
  52   31   52 1
  53   32   36 1
  54   32   33 2
  55   33   34 1
  56   34   35 2
  57   34   53 1
  58   35   36 1
  59   35   54 1

#	End of record

