#	Name: ASD01916122
#	Creating user name:	WinNT
#	Creation time:	15. 06. 2019 20:06

#	Modifying user name:	WinNT
#	Modification time:	15. 06. 2019 20:06

#	Program:	/corina/corina34_cracker 3.40 0067  02.08.2006

@<TRIPOS>MOLECULE
ASD01916122
  44   47    0    0    0
SMALL
NO_CHARGES


@<TRIPOS>ATOM
   1 C1             0.0780     1.3896    -0.0542 C.ar    
   2 C2             0.0831     0.0082    -0.0545 C.ar    
   3 C3             1.2878    -0.6798    -0.0526 C.ar    
   4 C4             2.4847     0.0218    -0.0504 C.ar    
   5 C5             2.4741     1.4032    -0.0501 C.ar    
   6 C6             1.2721     2.0865    -0.0520 C.ar    
   7 O7             1.2955    -2.0388    -0.0525 O.3     
   8 C8             2.5724    -2.6803    -0.0505 C.3     
   9 C9             2.3835    -4.1754    -0.0506 C.2     
  10 C10            1.1545    -4.8474    -0.0524 C.2     
  11 N11            3.3404    -5.0702    -0.0547 N.2     
  12 N12            2.7521    -6.3378    -0.0577 N.pl3   
  13 C13            1.4095    -6.1695    -0.0512 C.2     
  14 C14            3.4349    -7.6344    -0.0753 C.3     
  15 C15            2.4617    -8.7242     0.3871 C.3     
  16 N16            1.1723    -8.5445    -0.2974 N.am    
  17 C17            0.4152    -7.3064    -0.0381 C.3     
  18 C18            0.6971    -9.4825    -1.1404 C.2     
  19 C19           -0.6580    -9.3420    -1.7148 C.ar    
  20 O20            1.3826   -10.4441    -1.4285 O.2     
  21 C21           -0.9159    -9.7760    -3.0158 C.ar    
  22 C22           -2.1824    -9.6425    -3.5473 C.ar    
  23 C23           -3.1965    -9.0798    -2.7940 C.ar    
  24 C24           -2.9483    -8.6459    -1.5013 C.ar    
  25 C25           -1.6858    -8.7799    -0.9560 C.ar    
  26 F26           -3.9436    -8.0967    -0.7713 F       
  27 H27           -0.8596     1.9257    -0.0603 H       
  28 H28           -0.8499    -0.5358    -0.0559 H       
  29 H29            3.4238    -0.5115    -0.0486 H       
  30 H30            3.4056     1.9498    -0.0481 H       
  31 H31            1.2660     3.1665    -0.0518 H       
  32 H32            3.1291    -2.3844    -0.9396 H       
  33 H33            3.1264    -2.3842     0.8403 H       
  34 H34            0.1773    -4.3875    -0.0544 H       
  35 H35            3.7728    -7.8541    -1.0881 H       
  36 H36            4.2926    -7.6033     0.5966 H       
  37 H37            2.8702    -9.7047     0.1425 H       
  38 H38            2.3155    -8.6484     1.4646 H       
  39 H39           -0.0678    -7.3632     0.9373 H       
  40 H40           -0.3330    -7.1581    -0.8167 H       
  41 H41           -0.1254   -10.2154    -3.6060 H       
  42 H42           -2.3820    -9.9780    -4.5542 H       
  43 H43           -4.1859    -8.9777    -3.2148 H       
  44 H44           -1.4925    -8.4421     0.0514 H       
@<TRIPOS>BOND
   1    1    2 ar
   2    1    6 ar
   3    1   27 1
   4    2    3 ar
   5    2   28 1
   6    3    4 ar
   7    3    7 1
   8    4    5 ar
   9    4   29 1
  10    5    6 ar
  11    5   30 1
  12    6   31 1
  13    7    8 1
  14    8    9 1
  15    8   32 1
  16    8   33 1
  17    9   10 1
  18    9   11 2
  19   10   13 2
  20   10   34 1
  21   11   12 1
  22   12   13 1
  23   12   14 1
  24   13   17 1
  25   14   15 1
  26   14   35 1
  27   14   36 1
  28   15   16 1
  29   15   37 1
  30   15   38 1
  31   16   17 1
  32   16   18 am
  33   17   39 1
  34   17   40 1
  35   18   19 1
  36   18   20 2
  37   19   21 ar
  38   19   25 ar
  39   21   22 ar
  40   21   41 1
  41   22   23 ar
  42   22   42 1
  43   23   24 ar
  44   23   43 1
  45   24   25 ar
  46   24   26 1
  47   25   44 1

#	End of record

