#	Name: ASD07301325
#	Creating user name:	WinNT
#	Creation time:	15. 06. 2019 21:11

#	Modifying user name:	WinNT
#	Modification time:	15. 06. 2019 21:11

#	Program:	/corina/corina34_cracker 3.40 0067  02.08.2006

@<TRIPOS>MOLECULE
ASD07301325
  34   35    0    0    0
SMALL
NO_CHARGES


@<TRIPOS>ATOM
   1 C1            -0.0171     1.4663     0.0521 C.2     
   2 C2             0.0021    -0.0041     0.0011 C.2     
   3 C3             1.2718    -0.6341    -0.0568 C.2     
   4 C4             2.3708     0.1576    -0.0610 C.2     
   5 N5             2.2550     1.5070    -0.0109 N.pl3   
   6 N6             1.1278     2.1151     0.0417 N.2     
   7 O7            -1.0314    -0.6547     0.0087 O.2     
   8 C8             3.3583     3.6592    -0.1128 C.ar    
   9 C9             3.4244     2.2748    -0.0170 C.ar    
  10 C10            4.6724     1.6626     0.0733 C.ar    
  11 C11            5.8014     2.4655     0.0637 C.ar    
  12 C12            5.6541     3.8365    -0.0344 C.ar    
  13 N13            4.4578     4.3856    -0.1185 N.ar    
  14 C14           -1.2985     2.2012     0.1079 C.2     
  15 C15           -1.3016     3.6129     0.1565 C.2     
  16 C16           -2.4737     4.2850     0.2075 C.2     
  17 O17           -2.3521     1.5892     0.1119 O.2     
  18 N18           -2.4767     5.6495     0.2544 N.pl3   
  19 C19           -1.2099     6.3853     0.2496 C.3     
  20 C20           -3.7466     6.3777     0.3097 C.3     
  21 H21            1.3593    -1.7099    -0.0959 H       
  22 H22            3.3518    -0.2921    -0.1045 H       
  23 H23            2.3965     4.1446    -0.1879 H       
  24 H24            4.7578     0.5887     0.1493 H       
  25 H25            6.7852     2.0253     0.1324 H       
  26 H26            6.5310     4.4669    -0.0420 H       
  27 H27           -0.3678     4.1554     0.1529 H       
  28 H28           -3.4076     3.7426     0.2110 H       
  29 H29           -0.9201     6.6031    -0.7783 H       
  30 H30           -1.3301     7.3191     0.7989 H       
  31 H31           -0.4370     5.7812     0.7248 H       
  32 H32           -4.5733     5.6674     0.3049 H       
  33 H33           -3.7846     6.9733     1.2218 H       
  34 H34           -3.8269     7.0344    -0.5566 H       
@<TRIPOS>BOND
   1    1    2 1
   2    1    6 2
   3    1   14 1
   4    2    3 1
   5    2    7 2
   6    3    4 2
   7    3   21 1
   8    4    5 1
   9    4   22 1
  10    5    6 1
  11    5    9 1
  12    8    9 ar
  13    8   13 ar
  14    8   23 1
  15    9   10 ar
  16   10   11 ar
  17   10   24 1
  18   11   12 ar
  19   11   25 1
  20   12   13 ar
  21   12   26 1
  22   14   15 1
  23   14   17 2
  24   15   16 2
  25   15   27 1
  26   16   18 1
  27   16   28 1
  28   18   19 1
  29   18   20 1
  30   19   29 1
  31   19   30 1
  32   19   31 1
  33   20   32 1
  34   20   33 1
  35   20   34 1

#	End of record

