#	Name: ASD03331324
#	Creating user name:	WinNT
#	Creation time:	15. 06. 2019 20:39

#	Modifying user name:	WinNT
#	Modification time:	15. 06. 2019 20:39

#	Program:	/corina/corina34_cracker 3.40 0067  02.08.2006

@<TRIPOS>MOLECULE
ASD03331324
  49   52    0    0    0
SMALL
NO_CHARGES


@<TRIPOS>ATOM
   1 O1            -0.0173     1.4258     0.0099 O.3     
   2 C2             0.0021    -0.0041     0.0020 C.3     
   3 C3             0.4728    -0.5065    -1.3708 C.3     
   4 C4             1.7126     0.2689    -1.7431 C.2     
   5 C5             2.0773     1.4170    -1.1209 C.2     
   6 C6             1.2809     2.0353     0.0008 C.3     
   7 N7             2.6361    -0.0016    -2.6946 N.am    
   8 N8             3.6041     1.0146    -2.6551 N.2     
   9 C9             3.2686     1.8681    -1.7084 C.2     
  10 C10            2.6282    -1.0584    -3.5310 C.2     
  11 O11            1.7317    -1.8760    -3.4684 O.2     
  12 N12            3.6149    -1.2083    -4.4368 N.am    
  13 C13            3.6068    -2.2981    -5.2992 C.2     
  14 S14            2.4113    -3.5201    -5.3218 S.3     
  15 C15            3.2521    -4.3330    -6.6393 C.2     
  16 C16            4.3402    -3.6207    -6.9377 C.2     
  17 N17            4.5015    -2.5330    -6.2073 N.2     
  18 C18            5.3041    -4.0226    -8.0242 C.3     
  19 C19            4.6857    -3.7226    -9.3911 C.3     
  20 C20            6.6056    -3.2333    -7.8689 C.3     
  21 C21            5.5997    -5.5198    -7.9156 C.3     
  22 C22            4.0190     3.0911    -1.3304 C.ar    
  23 C23            5.4111     3.1017    -1.3868 C.ar    
  24 C24            6.1056     4.2431    -1.0338 C.ar    
  25 C25            5.4177     5.3761    -0.6241 C.ar    
  26 C26            4.0339     5.3677    -0.5669 C.ar    
  27 C27            3.3329     4.2340    -0.9237 C.ar    
  28 F28            6.0995     6.4904    -0.2796 F       
  29 F29            7.4555     4.2554    -1.0873 F       
  30 H30            0.6846    -0.3619     0.7729 H       
  31 H31           -1.0007    -0.3816     0.2022 H       
  32 H32            0.7050    -1.5700    -1.3153 H       
  33 H33           -0.3064    -0.3360    -2.1137 H       
  34 H34            1.1832     3.1082    -0.1645 H       
  35 H35            1.7807     1.8522     0.9520 H       
  36 H36            4.3307    -0.5556    -4.4868 H       
  37 H37            2.9413    -5.2483    -7.1211 H       
  38 H38            4.4752    -2.6559    -9.4684 H       
  39 H39            5.3829    -4.0132   -10.1770 H       
  40 H40            3.7586    -4.2849    -9.5018 H       
  41 H41            7.0461    -3.4470    -6.8950 H       
  42 H42            7.3028    -3.5239    -8.6547 H       
  43 H43            6.3950    -2.1666    -7.9462 H       
  44 H44            4.6725    -6.0821    -8.0263 H       
  45 H45            6.2968    -5.8105    -8.7015 H       
  46 H46            6.0402    -5.7335    -6.9418 H       
  47 H47            5.9464     2.2195    -1.7054 H       
  48 H48            3.5023     6.2517    -0.2467 H       
  49 H49            2.2539     4.2292    -0.8784 H       
@<TRIPOS>BOND
   1    1    2 1
   2    1    6 1
   3    2    3 1
   4    2   30 1
   5    2   31 1
   6    3    4 1
   7    3   32 1
   8    3   33 1
   9    4    5 2
  10    4    7 1
  11    5    6 1
  12    5    9 1
  13    6   34 1
  14    6   35 1
  15    7    8 1
  16    7   10 am
  17    8    9 2
  18    9   22 1
  19   10   11 2
  20   10   12 am
  21   12   13 1
  22   12   36 1
  23   13   14 1
  24   13   17 2
  25   14   15 1
  26   15   16 2
  27   15   37 1
  28   16   17 1
  29   16   18 1
  30   18   19 1
  31   18   20 1
  32   18   21 1
  33   19   38 1
  34   19   39 1
  35   19   40 1
  36   20   41 1
  37   20   42 1
  38   20   43 1
  39   21   44 1
  40   21   45 1
  41   21   46 1
  42   22   23 ar
  43   22   27 ar
  44   23   24 ar
  45   23   47 1
  46   24   25 ar
  47   24   29 1
  48   25   26 ar
  49   25   28 1
  50   26   27 ar
  51   26   48 1
  52   27   49 1

#	End of record

