#	Name: ASD05730086
#	Creating user name:	WinNT
#	Creation time:	15. 06. 2019 21:02

#	Modifying user name:	WinNT
#	Modification time:	15. 06. 2019 21:02

#	Program:	/corina/corina34_cracker 3.40 0067  02.08.2006

@<TRIPOS>MOLECULE
ASD05730086
  74   80    0    0    0
SMALL
NO_CHARGES


@<TRIPOS>ATOM
   1 N1            -0.6083     1.9826    -0.4845 N.pl3   
   2 C2            -0.5738     0.5898    -0.3530 C.ar    
   3 C3             0.5184    -0.0243     0.2459 C.ar    
   4 C4             0.5524    -1.3985     0.3755 C.ar    
   5 C5            -0.5052    -2.1666    -0.0934 C.ar    
   6 C6            -1.5972    -1.5526    -0.6927 C.ar    
   7 C7            -1.6343    -0.1779    -0.8164 C.ar    
   8 N8            -0.4705    -3.5607     0.0377 N.pl3   
   9 C9             0.7334    -4.2331    -0.0506 C.ar    
  10 N10            0.7572    -5.5338     0.1967 N.ar    
  11 C11            1.8954    -6.2142     0.1214 C.ar    
  12 C12            3.0762    -5.5240    -0.2269 C.ar    
  13 C13            2.9986    -4.1463    -0.4793 C.ar    
  14 N14            1.8237    -3.5521    -0.3858 N.ar    
  15 N15            1.9297    -7.5639     0.3767 N.am    
  16 C16            3.0873    -8.2481     0.2990 C.2     
  17 C17            4.3298    -7.5615    -0.0597 C.2     
  18 C18            4.3054    -6.2174    -0.3168 C.2     
  19 C19            0.7498    -8.2345     0.7216 C.ar    
  20 C20            0.2118    -9.1830    -0.1383 C.ar    
  21 O21            3.1007    -9.4444     0.5289 O.2     
  22 C22            5.6029    -8.3159    -0.1449 C.2     
  23 N23            6.1409    -9.0812     0.8268 N.2     
  24 C24           -2.8641     2.8921    -0.0747 C.3     
  25 C25           -1.7605     2.6304    -1.1163 C.3     
  26 C26            6.4356    -8.3657    -1.2185 C.2     
  27 N27            7.4834    -9.1710    -0.8652 N.am    
  28 C28            7.2628    -9.5901     0.4001 C.2     
  29 S29            8.7811    -9.5644    -1.8158 S.o2    
  30 C30            9.6999    -8.0848    -2.0824 C.ar    
  31 O31            9.6082   -10.4149    -1.0336 O.2     
  32 C32           10.7615    -7.7499    -1.2557 C.ar    
  33 C33            9.3823    -7.2306    -3.1273 C.ar    
  34 C34           10.1253    -6.0790    -3.3054 C.ar    
  35 N35           11.1255    -5.7897    -2.4962 N.ar    
  36 C36           11.4591    -6.5811    -1.4955 C.ar    
  37 C37            0.1183    -7.9566     1.9267 C.ar    
  38 C38           -1.0451    -8.6201     2.2641 C.ar    
  39 C39           -1.5809    -9.5606     1.4035 C.ar    
  40 C40           -0.9518    -9.8431     0.2049 C.ar    
  41 N41           -3.0965     4.3525    -0.0465 N.3     
  42 C42           -1.8291     4.9733    -0.5097 C.3     
  43 C43           -1.3661     4.0280    -1.6466 C.3     
  44 C44            6.2416    -7.6696    -2.5410 C.3     
  45 O45            8.2528    -9.9419    -3.0797 O.2     
  46 H46            0.1288     2.5194    -0.1537 H       
  47 H47            1.3413     0.5730     0.6099 H       
  48 H48            1.4018    -1.8761     0.8412 H       
  49 H49           -2.4196    -2.1500    -1.0576 H       
  50 H50           -2.4835     0.2996    -1.2824 H       
  51 H51           -1.2915    -4.0541     0.1905 H       
  52 H52            3.8809    -3.5844    -0.7481 H       
  53 H53            5.2118    -5.6938    -0.5828 H       
  54 H54            0.7027    -9.4040    -1.0746 H       
  55 H55           -3.7790     2.3760    -0.3654 H       
  56 H56           -2.5371     2.5492     0.9070 H       
  57 H57           -2.1445     2.0110    -1.9268 H       
  58 H58            7.9116   -10.2413     0.9669 H       
  59 H59           11.0395    -8.3939    -0.4346 H       
  60 H60            8.5647    -7.4624    -3.7938 H       
  61 H61            9.8842    -5.4084    -4.1170 H       
  62 H62           12.2845    -6.3110    -0.8536 H       
  63 H63            0.5366    -7.2227     2.5996 H       
  64 H64           -1.5367    -8.4044     3.2013 H       
  65 H65           -2.4905   -10.0784     1.6698 H       
  66 H66           -1.3727   -10.5781    -0.4652 H       
  67 H67           -3.8653     4.6079    -0.6481 H       
  68 H68           -2.0104     5.9771    -0.8939 H       
  69 H69           -1.0947     4.9952     0.2955 H       
  70 H70           -0.2877     4.0961    -1.7897 H       
  71 H71           -1.8942     4.2519    -2.5735 H       
  72 H72            6.7797    -6.7217    -2.5350 H       
  73 H73            6.6251    -8.3001    -3.3431 H       
  74 H74            5.1796    -7.4836    -2.7012 H       
@<TRIPOS>BOND
   1    1    2 1
   2    1   25 1
   3    1   46 1
   4    2    3 ar
   5    2    7 ar
   6    3    4 ar
   7    3   47 1
   8    4    5 ar
   9    4   48 1
  10    5    6 ar
  11    5    8 1
  12    6    7 ar
  13    6   49 1
  14    7   50 1
  15    8    9 1
  16    8   51 1
  17    9   10 ar
  18    9   14 ar
  19   10   11 ar
  20   11   12 ar
  21   11   15 1
  22   12   13 ar
  23   12   18 1
  24   13   14 ar
  25   13   52 1
  26   15   16 am
  27   15   19 1
  28   16   17 1
  29   16   21 2
  30   17   18 2
  31   17   22 1
  32   18   53 1
  33   19   20 ar
  34   19   37 ar
  35   20   40 ar
  36   20   54 1
  37   22   26 2
  38   22   23 1
  39   23   28 2
  40   24   25 1
  41   24   41 1
  42   24   55 1
  43   24   56 1
  44   25   43 1
  45   25   57 1
  46   26   27 1
  47   26   44 1
  48   27   28 1
  49   27   29 am
  50   28   58 1
  51   29   30 1
  52   29   31 2
  53   29   45 2
  54   30   32 ar
  55   30   33 ar
  56   32   36 ar
  57   32   59 1
  58   33   34 ar
  59   33   60 1
  60   34   35 ar
  61   34   61 1
  62   35   36 ar
  63   36   62 1
  64   37   38 ar
  65   37   63 1
  66   38   39 ar
  67   38   64 1
  68   39   40 ar
  69   39   65 1
  70   40   66 1
  71   41   42 1
  72   41   67 1
  73   42   43 1
  74   42   68 1
  75   42   69 1
  76   43   70 1
  77   43   71 1
  78   44   72 1
  79   44   73 1
  80   44   74 1

#	End of record

