#	Name: ASD02038747
#	Creating user name:	WinNT
#	Creation time:	15. 06. 2019 20:17

#	Modifying user name:	WinNT
#	Modification time:	15. 06. 2019 20:17

#	Program:	/corina/corina34_cracker 3.40 0067  02.08.2006

@<TRIPOS>MOLECULE
ASD02038747
  54   57    0    0    0
SMALL
NO_CHARGES


@<TRIPOS>ATOM
   1 C1            -1.2779    -0.8472     0.4666 C.2     
   2 C2            -0.0606    -0.0340     0.3014 C.2     
   3 N3             1.1365    -0.6352     0.1531 N.am    
   4 C4             1.2411    -2.0931     0.2514 C.3     
   5 C5             1.2123    -2.6932    -1.1307 C.ar    
   6 C6             2.3330     0.1693    -0.1064 C.3     
   7 O7            -0.1360     1.1799     0.2988 O.2     
   8 N8            -1.3384    -2.2044     0.4992 N.2     
   9 C9            -2.5748    -2.5654     0.6590 C.2     
  10 N10           -3.3548    -1.4500     0.7335 N.pl3   
  11 C11           -2.5497    -0.3739     0.6208 C.2     
  12 C12            2.3950    -3.0162    -1.7678 C.ar    
  13 C13            0.0023    -2.9251    -1.7578 C.ar    
  14 C14           -0.0276    -3.4756    -3.0260 C.ar    
  15 C15            1.1521    -3.7951    -3.6694 C.ar    
  16 C16            2.3677    -3.5684    -3.0399 C.ar    
  17 O17            3.5298    -3.8815    -3.6711 O.3     
  18 C18            2.1199     1.0128    -1.3671 C.3     
  19 C19            3.3428     1.9074    -1.5859 C.3     
  20 O20            3.5443     2.7268    -0.4325 O.3     
  21 C21            3.7956     1.9931     0.7677 C.3     
  22 C22            2.5909     1.1019     1.0810 C.3     
  23 C23            3.4259    -4.4409    -4.9819 C.3     
  24 F24            2.7724    -3.5356    -5.8248 F       
  25 F25            4.7067    -4.7014    -5.4807 F       
  26 F26            2.6968    -5.6335    -4.9235 F       
  27 C27           -3.1093    -3.9755     0.7540 C.3     
  28 C28           -4.5284    -3.9117     1.3328 C.3     
  29 C29           -5.3378    -2.8589     0.5703 C.3     
  30 C30           -4.8098    -1.4612     0.9107 C.3     
  31 H31            2.1773    -2.3579     0.7429 H       
  32 H32            0.4037    -2.4792     0.8326 H       
  33 H33            3.1907    -0.4882    -0.2483 H       
  34 H34           -2.8531     0.6624     0.6414 H       
  35 H35            3.3399    -2.8385    -1.2759 H       
  36 H36           -0.9213    -2.6764    -1.2562 H       
  37 H37           -0.9742    -3.6562    -3.5136 H       
  38 H38            1.1283    -4.2250    -4.6599 H       
  39 H39            1.9905     0.3559    -2.2273 H       
  40 H40            1.2320     1.6331    -1.2445 H       
  41 H41            4.2233     1.2860    -1.7486 H       
  42 H42            3.1785     2.5409    -2.4576 H       
  43 H43            4.6821     1.3728     0.6357 H       
  44 H44            3.9575     2.6882     1.5915 H       
  45 H45            1.7125     1.7240     1.2531 H       
  46 H46            2.7984     0.5088     1.9717 H       
  47 H47           -3.1367    -4.4261    -0.2381 H       
  48 H48           -2.4709    -4.5674     1.4099 H       
  49 H49           -5.0079    -4.8850     1.2290 H       
  50 H50           -4.4795    -3.6399     2.3873 H       
  51 H51           -5.2410    -3.0324    -0.5014 H       
  52 H52           -6.3872    -2.9303     0.8563 H       
  53 H53           -5.0535    -1.2205     1.9454 H       
  54 H54           -5.2646    -0.7269     0.2458 H       
@<TRIPOS>BOND
   1    1    2 1
   2    1    8 1
   3    1   11 2
   4    2    3 am
   5    2    7 2
   6    3    4 1
   7    3    6 1
   8    4    5 1
   9    4   31 1
  10    4   32 1
  11    5   12 ar
  12    5   13 ar
  13    6   18 1
  14    6   22 1
  15    6   33 1
  16    8    9 2
  17    9   10 1
  18    9   27 1
  19   10   11 1
  20   10   30 1
  21   11   34 1
  22   12   16 ar
  23   12   35 1
  24   13   14 ar
  25   13   36 1
  26   14   15 ar
  27   14   37 1
  28   15   16 ar
  29   15   38 1
  30   16   17 1
  31   17   23 1
  32   18   19 1
  33   18   39 1
  34   18   40 1
  35   19   20 1
  36   19   41 1
  37   19   42 1
  38   20   21 1
  39   21   22 1
  40   21   43 1
  41   21   44 1
  42   22   45 1
  43   22   46 1
  44   23   24 1
  45   23   25 1
  46   23   26 1
  47   27   28 1
  48   27   47 1
  49   27   48 1
  50   28   29 1
  51   28   49 1
  52   28   50 1
  53   29   30 1
  54   29   51 1
  55   29   52 1
  56   30   53 1
  57   30   54 1

#	End of record

