#	Name: ASD07930904
#	Creating user name:	WinNT
#	Creation time:	15. 06. 2019 21:13

#	Modifying user name:	WinNT
#	Modification time:	15. 06. 2019 21:13

#	Program:	/corina/corina34_cracker 3.40 0067  02.08.2006

@<TRIPOS>MOLECULE
ASD07930904
  59   62    0    0    0
SMALL
NO_CHARGES


@<TRIPOS>ATOM
   1 C1            -0.0168     1.3889     0.0097 C.ar    
   2 C2             0.0021    -0.0041     0.0020 C.ar    
   3 C3             1.2256    -0.6990    -0.0129 C.ar    
   4 C4             2.4061    -0.0316    -0.0201 C.ar    
   5 C5             2.4242     1.3766    -0.0132 C.ar    
   6 C6             3.6374     2.0842    -0.0204 C.ar    
   7 C7             3.6248     3.4460    -0.0134 C.ar    
   8 C8             2.4241     4.1518     0.0012 C.ar    
   9 C9             1.2288     3.4991     0.0086 C.ar    
  10 C10            1.2033     2.0950     0.0018 C.ar    
  11 C11           -1.2661    -0.7539     0.0101 C.2     
  12 O12           -2.3255    -0.1567     0.0234 O.2     
  13 N13           -1.2522    -2.1015     0.0027 N.am    
  14 C14            3.7028    -0.7993    -0.0352 C.3     
  15 C15            4.3360    -2.1576     3.4391 C.ar    
  16 C16            3.8465    -2.0477     2.1406 C.ar    
  17 C17            4.2105    -0.9553     1.3751 C.ar    
  18 C18            5.0551    -0.0051     1.9350 C.ar    
  19 C19            5.5033    -0.1772     3.2291 C.ar    
  20 N20            5.1397    -1.2299     3.9370 N.ar    
  21 S21            3.8767    -3.5392     4.4315 S.3     
  22 C22            4.7488    -3.2290     5.9915 C.3     
  23 O23           -1.1947     2.0575     0.0189 O.3     
  24 C24           -1.7528     2.3708     1.2966 C.3     
  25 C25           -2.5133    -2.8471     0.0108 C.3     
  26 C26           -2.2812    -4.2353     0.6108 C.3     
  27 C27           -3.5982    -5.0140     0.6192 C.3     
  28 C28           -4.1149    -5.1576    -0.8137 C.3     
  29 C29           -4.3470    -3.7694    -1.4137 C.3     
  30 C30           -3.0300    -2.9907    -1.4221 C.3     
  31 O31           -1.7986    -4.1012     1.9491 O.3     
  32 H32            1.2245    -1.7790    -0.0184 H       
  33 H33            4.5763     1.5506    -0.0310 H       
  34 H34            4.5597     3.9867    -0.0190 H       
  35 H35            2.4412     5.2317     0.0072 H       
  36 H36            0.3051     4.0585     0.0203 H       
  37 H37           -0.4073    -2.5778    -0.0079 H       
  38 H38            3.5371    -1.7837    -0.4727 H       
  39 H39            4.4391    -0.2572    -0.6285 H       
  40 H40            3.1916    -2.8055     1.7365 H       
  41 H41            5.3584     0.8595     1.3632 H       
  42 H42            6.1603     0.5590     3.6679 H       
  43 H43            5.8219    -3.1852     5.8053 H       
  44 H44            4.4141    -2.2810     6.4126 H       
  45 H45            4.5345    -4.0345     6.6939 H       
  46 H46           -2.6933     2.9050     1.1611 H       
  47 H47           -1.9348     1.4493     1.8494 H       
  48 H48           -1.0561     2.9972     1.8537 H       
  49 H49           -3.2488    -2.3106     0.6102 H       
  50 H50           -1.5457    -4.7718     0.0114 H       
  51 H51           -3.4329    -6.0029     1.0466 H       
  52 H52           -4.3337    -4.4774     1.2186 H       
  53 H53           -3.3794    -5.6941    -1.4131 H       
  54 H54           -5.0532    -5.7123    -0.8078 H       
  55 H55           -4.7151    -3.8717    -2.4346 H       
  56 H56           -5.0825    -3.2328    -0.8143 H       
  57 H57           -3.1954    -2.0018    -1.8496 H       
  58 H58           -2.2945    -3.5273    -2.0215 H       
  59 H59           -1.6291    -4.9437     2.3924 H       
@<TRIPOS>BOND
   1    1    2 ar
   2    1   10 ar
   3    1   23 1
   4    2    3 ar
   5    2   11 1
   6    3    4 ar
   7    3   32 1
   8    4    5 ar
   9    4   14 1
  10    5    6 ar
  11    5   10 ar
  12    6    7 ar
  13    6   33 1
  14    7    8 ar
  15    7   34 1
  16    8    9 ar
  17    8   35 1
  18    9   10 ar
  19    9   36 1
  20   11   12 2
  21   11   13 am
  22   13   25 1
  23   13   37 1
  24   14   17 1
  25   14   38 1
  26   14   39 1
  27   15   16 ar
  28   15   20 ar
  29   15   21 1
  30   16   17 ar
  31   16   40 1
  32   17   18 ar
  33   18   19 ar
  34   18   41 1
  35   19   20 ar
  36   19   42 1
  37   21   22 1
  38   22   43 1
  39   22   44 1
  40   22   45 1
  41   23   24 1
  42   24   46 1
  43   24   47 1
  44   24   48 1
  45   25   26 1
  46   25   30 1
  47   25   49 1
  48   26   27 1
  49   26   31 1
  50   26   50 1
  51   27   28 1
  52   27   51 1
  53   27   52 1
  54   28   29 1
  55   28   53 1
  56   28   54 1
  57   29   30 1
  58   29   55 1
  59   29   56 1
  60   30   57 1
  61   30   58 1
  62   31   59 1

#	End of record

