#	Name: ASD03240355
#	Creating user name:	WinNT
#	Creation time:	15. 06. 2019 20:34

#	Modifying user name:	WinNT
#	Modification time:	15. 06. 2019 20:34

#	Program:	/corina/corina34_cracker 3.40 0067  02.08.2006

@<TRIPOS>MOLECULE
ASD03240355
  77   83    0    0    0
SMALL
NO_CHARGES


@<TRIPOS>ATOM
   1 N1             0.3504     1.1928     0.9293 N.2     
   2 C2             0.3706    -0.1058     0.7595 C.2     
   3 C3             1.2176    -0.6876    -0.2095 C.2     
   4 N4             2.0095     0.1036    -0.9636 N.am    
   5 C5             1.9743     1.4575    -0.7722 C.2     
   6 C6             1.1261     1.9927     0.1935 C.2     
   7 C7             1.0835     3.4584     0.4055 C.ar    
   8 C8            -0.1407     4.1256     0.4393 C.ar    
   9 C9            -0.1740     5.4907     0.6377 C.ar    
  10 C10            1.0038     6.1974     0.8028 C.ar    
  11 C11            2.2212     5.5412     0.7698 C.ar    
  12 C12            2.2670     4.1755     0.5779 C.ar    
  13 C13            2.8299     2.3444    -1.5827 C.ar    
  14 C14            4.1941     2.0729    -1.7174 C.ar    
  15 C15            4.9879     2.9066    -2.4768 C.ar    
  16 C16            4.4366     4.0099    -3.1045 C.ar    
  17 C17            3.0866     4.2853    -2.9753 C.ar    
  18 C18            2.2792     3.4571    -2.2242 C.ar    
  19 O19            1.2336    -1.8974    -0.3635 O.2     
  20 C20            0.9604     7.6882     1.0190 C.3     
  21 N21            0.8748     7.9720     2.4578 N.3     
  22 C22           -0.1273     7.1154     3.1045 C.3     
  23 C23            0.5931     9.3931     2.6980 C.3     
  24 C24            0.6551     9.6800     4.1999 C.3     
  25 C25           -0.3734     8.8070     4.9243 C.3     
  26 C26           -0.0868     7.3343     4.6186 C.3     
  27 N27           -0.2785     9.0347     6.3683 N.am    
  28 C28           -1.3007     9.5076     7.1878 C.ar    
  29 N29            0.5379     9.1347     8.4103 N.am    
  30 C30            0.8098     8.8171     7.1305 C.2     
  31 C31           -2.6135     9.8851     6.9498 C.ar    
  32 C32           -3.4026    10.3245     7.9946 C.ar    
  33 C33           -2.8885    10.3897     9.2783 C.ar    
  34 C34           -1.5821    10.0158     9.5252 C.ar    
  35 C35           -0.7822     9.5733     8.4826 C.ar    
  36 O36            1.8770     8.3964     6.7244 O.2     
  37 C37           -0.5154    -0.9850     1.6040 C.3     
  38 C38           -1.3140    -0.1294     2.5533 C.ar    
  39 C39           -2.5510     0.3558     2.1710 C.ar    
  40 C40           -3.2851     1.1403     3.0394 C.ar    
  41 C41           -2.7800     1.4413     4.2960 C.ar    
  42 C42           -1.5385     0.9533     4.6772 C.ar    
  43 C43           -0.8109     0.1645     3.8072 C.ar    
  44 O44           -3.5000     2.2133     5.1519 O.3     
  45 H45            2.5961    -0.2830    -1.6324 H       
  46 H46           -1.0608     3.5750     0.3102 H       
  47 H47           -1.1214     6.0086     0.6637 H       
  48 H48            3.1374     6.0983     0.8989 H       
  49 H49            3.2178     3.6636     0.5571 H       
  50 H50            4.6257     1.2124    -1.2278 H       
  51 H51            6.0424     2.6983    -2.5815 H       
  52 H52            5.0631     4.6593    -3.6980 H       
  53 H53            2.6633     5.1483    -3.4677 H       
  54 H54            1.2248     3.6703    -2.1284 H       
  55 H55            1.8649     8.1407     0.6126 H       
  56 H56            0.0881     8.1033     0.5142 H       
  57 H57           -1.1184     7.3676     2.7274 H       
  58 H58            0.0904     6.0706     2.8826 H       
  59 H59            1.3342    10.0027     2.1809 H       
  60 H60           -0.4013     9.6347     2.3228 H       
  61 H61            1.6535     9.4517     4.5731 H       
  62 H62            0.4307    10.7315     4.3791 H       
  63 H63           -1.3753     9.0624     4.5793 H       
  64 H64           -0.8414     6.7098     5.0968 H       
  65 H65            0.8999     7.0691     4.9983 H       
  66 H66            1.1552     9.0670     9.1555 H       
  67 H67           -3.0180     9.8360     5.9496 H       
  68 H68           -4.4251    10.6189     7.8093 H       
  69 H69           -3.5116    10.7347    10.0902 H       
  70 H70           -1.1845    10.0680    10.5279 H       
  71 H71           -1.1943    -1.5430     0.9591 H       
  72 H72            0.1002    -1.6816     2.1730 H       
  73 H73           -2.9436     0.1215     1.1926 H       
  74 H74           -4.2511     1.5193     2.7402 H       
  75 H75           -1.1432     1.1862     5.6549 H       
  76 H76            0.1556    -0.2156     4.1035 H       
  77 H77           -4.0940     1.7129     5.7280 H       
@<TRIPOS>BOND
   1    1    2 2
   2    1    6 1
   3    2    3 1
   4    2   37 1
   5    3    4 am
   6    3   19 2
   7    4    5 1
   8    4   45 1
   9    5    6 2
  10    5   13 1
  11    6    7 1
  12    7    8 ar
  13    7   12 ar
  14    8    9 ar
  15    8   46 1
  16    9   10 ar
  17    9   47 1
  18   10   11 ar
  19   10   20 1
  20   11   12 ar
  21   11   48 1
  22   12   49 1
  23   13   14 ar
  24   13   18 ar
  25   14   15 ar
  26   14   50 1
  27   15   16 ar
  28   15   51 1
  29   16   17 ar
  30   16   52 1
  31   17   18 ar
  32   17   53 1
  33   18   54 1
  34   20   21 1
  35   20   55 1
  36   20   56 1
  37   21   23 1
  38   21   22 1
  39   22   26 1
  40   22   57 1
  41   22   58 1
  42   23   24 1
  43   23   59 1
  44   23   60 1
  45   24   25 1
  46   24   61 1
  47   24   62 1
  48   25   26 1
  49   25   27 1
  50   25   63 1
  51   26   64 1
  52   26   65 1
  53   27   28 1
  54   27   30 am
  55   28   31 ar
  56   28   35 ar
  57   29   30 am
  58   29   35 1
  59   29   66 1
  60   30   36 2
  61   31   32 ar
  62   31   67 1
  63   32   33 ar
  64   32   68 1
  65   33   34 ar
  66   33   69 1
  67   34   35 ar
  68   34   70 1
  69   37   38 1
  70   37   71 1
  71   37   72 1
  72   38   39 ar
  73   38   43 ar
  74   39   40 ar
  75   39   73 1
  76   40   41 ar
  77   40   74 1
  78   41   42 ar
  79   41   44 1
  80   42   43 ar
  81   42   75 1
  82   43   76 1
  83   44   77 1

#	End of record

