#	Name: ASD01812621
#	Creating user name:	WinNT
#	Creation time:	15. 06. 2019 19:28

#	Modifying user name:	WinNT
#	Modification time:	15. 06. 2019 19:28

#	Program:	/corina/corina34_cracker 3.40 0067  02.08.2006

@<TRIPOS>MOLECULE
ASD01812621
  48   52    0    0    0
SMALL
NO_CHARGES


@<TRIPOS>ATOM
   1 O1            -0.0163     1.3522     0.0095 O.3     
   2 C2             0.0021    -0.0041     0.0020 C.ar    
   3 C3             1.2105    -0.6847    -0.0132 C.ar    
   4 C4             1.2312    -2.0655    -0.0208 C.ar    
   5 C5             0.0448    -2.7828    -0.0128 C.ar    
   6 C6            -1.1603    -2.1223     0.0027 C.ar    
   7 C7            -1.2004    -0.7252     0.0155 C.ar    
   8 C8            -2.5947    -2.5891     0.0137 C.3     
   9 N9            -3.4200    -1.3759     0.0279 N.am    
  10 C10           -2.6104    -0.3028     0.0372 C.2     
  11 C11           -4.8845    -1.3401     0.0414 C.3     
  12 O12           -2.9891     0.8526     0.0485 O.2     
  13 C13            1.1734     2.0057     0.0016 C.ar    
  14 C14            1.8048     2.3329     1.2089 C.ar    
  15 C15            1.1984     1.9798     2.4572 C.1     
  16 C16            1.7735     2.3480    -1.2031 C.ar    
  17 C17            2.9856     3.0133    -1.2084 C.ar    
  18 C18            3.6092     3.3421    -0.0160 C.ar    
  19 C19            3.0296     3.0054     1.1881 C.ar    
  20 N20            0.7174     1.6997     3.4475 N.1     
  21 F21            1.1726     2.0305    -2.3707 F       
  22 C22           -5.3737    -1.3358     1.4668 C.ar    
  23 C23           -5.5685    -0.1358     2.1258 C.ar    
  24 C24           -6.0168    -0.1287     3.4322 C.ar    
  25 C25           -6.2724    -1.3278     4.0835 C.ar    
  26 C26           -6.0764    -2.5310     3.4191 C.ar    
  27 C27           -5.6325    -2.5316     2.1111 C.ar    
  28 N28           -6.7271    -1.3238     5.4097 N.pl3   
  29 N29           -6.9726    -0.1977     6.2124 N.2     
  30 C30           -7.3828    -0.6420     7.3716 C.2     
  31 N31           -7.4082    -1.9740     7.3415 N.2     
  32 C32           -7.0213    -2.3992     6.1661 C.2     
  33 H33            2.1387    -0.1327    -0.0195 H       
  34 H34            2.1758    -2.5889    -0.0333 H       
  35 H35            0.0677    -3.8625    -0.0192 H       
  36 H36           -2.8050    -3.1749    -0.8812 H       
  37 H37           -2.7882    -3.1845     0.9060 H       
  38 H38           -5.2306    -0.4387    -0.4642 H       
  39 H39           -5.2741    -2.2181    -0.4738 H       
  40 H40            3.4489     3.2777    -2.1475 H       
  41 H41            4.5560     3.8614    -0.0301 H       
  42 H42            3.5218     3.2608     2.1149 H       
  43 H43           -5.3694     0.7967     1.6187 H       
  44 H44           -6.1680     0.8088     3.9467 H       
  45 H45           -6.2741    -3.4654     3.9233 H       
  46 H46           -5.4834    -3.4671     1.5925 H       
  47 H47           -7.6563    -0.0285     8.2173 H       
  48 H48           -6.9485    -3.4315     5.8570 H       
@<TRIPOS>BOND
   1    1    2 1
   2    1   13 1
   3    2    3 ar
   4    2    7 ar
   5    3    4 ar
   6    3   33 1
   7    4    5 ar
   8    4   34 1
   9    5    6 ar
  10    5   35 1
  11    6    8 1
  12    6    7 ar
  13    7   10 1
  14    8    9 1
  15    8   36 1
  16    8   37 1
  17    9   10 am
  18    9   11 1
  19   10   12 2
  20   11   22 1
  21   11   38 1
  22   11   39 1
  23   13   16 ar
  24   13   14 ar
  25   14   15 1
  26   14   19 ar
  27   15   20 3
  28   16   17 ar
  29   16   21 1
  30   17   18 ar
  31   17   40 1
  32   18   19 ar
  33   18   41 1
  34   19   42 1
  35   22   23 ar
  36   22   27 ar
  37   23   24 ar
  38   23   43 1
  39   24   25 ar
  40   24   44 1
  41   25   26 ar
  42   25   28 1
  43   26   27 ar
  44   26   45 1
  45   27   46 1
  46   28   29 1
  47   28   32 1
  48   29   30 2
  49   30   31 1
  50   30   47 1
  51   31   32 2
  52   32   48 1

#	End of record

