#	Name: ASD02030363
#	Creating user name:	WinNT
#	Creation time:	15. 06. 2019 20:15

#	Modifying user name:	WinNT
#	Modification time:	15. 06. 2019 20:15

#	Program:	/corina/corina34_cracker 3.40 0067  02.08.2006

@<TRIPOS>MOLECULE
ASD02030363
  57   61    0    0    0
SMALL
NO_CHARGES


@<TRIPOS>ATOM
   1 N1             0.0300     1.4953    -0.3208 N.am    
   2 C2            -0.1492     0.0396    -0.4146 C.3     
   3 C3            -1.0216    -0.4235     0.7587 C.3     
   4 N4            -2.2133     0.4341     0.8249 N.am    
   5 C5            -2.0341     1.8897     0.9188 C.3     
   6 C6            -1.1616     2.3524    -0.2489 C.3     
   7 C7             1.2651     2.0341    -0.2954 C.2     
   8 C8             2.4527     1.1572    -0.2166 C.2     
   9 N9             3.6956     1.5517    -0.0420 N.2     
  10 N10            2.4522    -0.1856    -0.3049 N.2     
  11 C11            3.6934    -0.5835    -0.1876 C.2     
  12 N12            4.4597     0.5144    -0.0237 N.pl3   
  13 O13            1.4026     3.2412    -0.3373 O.2     
  14 C14           -3.4484    -0.1048     0.7996 C.2     
  15 C15           -3.6137    -1.5747     0.7770 C.ar    
  16 O16           -4.4263     0.6169     0.7952 O.2     
  17 C17           -0.7379     3.8060    -0.0289 C.3     
  18 C18           -1.9486     2.2355    -1.5558 C.3     
  19 C19            5.8517     0.5250     0.1386 C.ar    
  20 C20            6.5238     1.7289     0.2988 C.ar    
  21 C21            7.8970     1.7360     0.4592 C.ar    
  22 C22            8.6006     0.5444     0.4595 C.ar    
  23 C23            7.9327    -0.6559     0.3000 C.ar    
  24 C24            6.5605    -0.6692     0.1452 C.ar    
  25 Cl25           8.7392     3.2407     0.6597 Cl      
  26 C26           -4.8353    -2.1129     0.4120 C.ar    
  27 C27           -4.9743    -3.5118     0.3962 C.ar    
  28 C28           -3.8528    -4.3042     0.7561 C.ar    
  29 C29           -2.6531    -3.6602     1.1124 C.ar    
  30 N30           -2.5791    -2.3537     1.1043 N.ar    
  31 C31           -6.1780    -4.1372     0.0394 C.ar    
  32 C32           -6.2538    -5.4978     0.0433 C.ar    
  33 C33           -5.1537    -6.2761     0.3963 C.ar    
  34 C34           -3.9689    -5.7017     0.7477 C.ar    
  35 H35           -0.6400    -0.2086    -1.3557 H       
  36 H36            0.8221    -0.4525    -0.3648 H       
  37 H37           -1.3242    -1.4590     0.6032 H       
  38 H38           -0.4587    -0.3399     1.6884 H       
  39 H39           -3.0054     2.3818     0.8690 H       
  40 H40           -1.5433     2.1379     1.8598 H       
  41 H41            4.0408    -1.6058    -0.2141 H       
  42 H42            0.0265     3.8481     0.7470 H       
  43 H43           -0.3361     4.2118    -0.9573 H       
  44 H44           -1.6023     4.3936     0.2804 H       
  45 H45           -2.8402     2.8602    -1.5001 H       
  46 H46           -1.3248     2.5658    -2.3864 H       
  47 H47           -2.2416     1.1973    -1.7118 H       
  48 H48            5.9748     2.6590     0.2979 H       
  49 H49            9.6733     0.5519     0.5842 H       
  50 H50            8.4845    -1.5843     0.3003 H       
  51 H51            6.0398    -1.6073     0.0210 H       
  52 H52           -5.6632    -1.4727     0.1455 H       
  53 H53           -1.7893    -4.2464     1.3892 H       
  54 H54           -7.0382    -3.5450    -0.2359 H       
  55 H55           -7.1805    -5.9798    -0.2310 H       
  56 H56           -5.2410    -7.3526     0.3909 H       
  57 H57           -3.1250    -6.3187     1.0189 H       
@<TRIPOS>BOND
   1    1    2 1
   2    1    7 am
   3    1    6 1
   4    2    3 1
   5    2   35 1
   6    2   36 1
   7    3    4 1
   8    3   37 1
   9    3   38 1
  10    4    5 1
  11    4   14 am
  12    5    6 1
  13    5   39 1
  14    5   40 1
  15    6   17 1
  16    6   18 1
  17    7    8 1
  18    7   13 2
  19    8    9 2
  20    8   10 1
  21    9   12 1
  22   10   11 2
  23   11   12 1
  24   11   41 1
  25   12   19 1
  26   14   15 1
  27   14   16 2
  28   15   26 ar
  29   15   30 ar
  30   17   42 1
  31   17   43 1
  32   17   44 1
  33   18   45 1
  34   18   46 1
  35   18   47 1
  36   19   20 ar
  37   19   24 ar
  38   20   21 ar
  39   20   48 1
  40   21   22 ar
  41   21   25 1
  42   22   23 ar
  43   22   49 1
  44   23   24 ar
  45   23   50 1
  46   24   51 1
  47   26   27 ar
  48   26   52 1
  49   27   28 ar
  50   27   31 ar
  51   28   29 ar
  52   28   34 ar
  53   29   30 ar
  54   29   53 1
  55   31   32 ar
  56   31   54 1
  57   32   33 ar
  58   32   55 1
  59   33   34 ar
  60   33   56 1
  61   34   57 1

#	End of record

