#	Name: ASD01914043
#	Creating user name:	WinNT
#	Creation time:	15. 06. 2019 20:02

#	Modifying user name:	WinNT
#	Modification time:	15. 06. 2019 20:02

#	Program:	/corina/corina34_cracker 3.40 0067  02.08.2006

@<TRIPOS>MOLECULE
ASD01914043
  38   40    0    0    0
SMALL
NO_CHARGES


@<TRIPOS>ATOM
   1 C1            -0.0156     1.3733    -0.0638 C.ar    
   2 C2             0.0039    -0.0092    -0.0724 C.ar    
   3 C3             1.2096    -0.6859    -0.0800 C.ar    
   4 C4             2.3813     1.4053    -0.0703 C.ar    
   5 C5             1.1702     2.0820    -0.0627 C.ar    
   6 O6             3.5492     2.1002    -0.0688 O.3     
   7 C7             4.7578     1.3377    -0.0770 C.3     
   8 C8             5.9408     2.2713    -0.0740 C.ar    
   9 N9             7.1617     1.7716    -0.0804 N.ar    
  10 C10            8.2291     2.5429    -0.0782 C.ar    
  11 C11            8.1004     3.9324    -0.0688 C.ar    
  12 C12            6.8169     4.4927    -0.0618 C.ar    
  13 C13            5.7286     3.6385    -0.0702 C.ar    
  14 C14            9.2983     4.7980    -0.0658 C.2     
  15 N15           10.5281     4.2467    -0.0722 N.am    
  16 O16            9.1744     6.0072    -0.0576 O.2     
  17 C17            2.3982     0.0182    -0.0789 C.ar    
  18 C18           11.6561     5.0594    -0.1829 C.ar    
  19 C19           12.8400     4.7335     0.4772 C.ar    
  20 C20           13.9334     5.5634     0.3415 C.ar    
  21 N21           13.8680     6.6528    -0.4005 N.ar    
  22 C22           12.7660     6.9954    -1.0407 C.ar    
  23 C23           11.6307     6.2158    -0.9613 C.ar    
  24 H24           -0.9587     1.8996    -0.0623 H       
  25 H25           -0.9243    -0.5614    -0.0729 H       
  26 H26            1.2222    -1.7658    -0.0863 H       
  27 H27            1.1545     3.1619    -0.0563 H       
  28 H28            4.7932     0.7035     0.8088 H       
  29 H29            4.7886     0.7151    -0.9711 H       
  30 H30            9.2124     2.0964    -0.0834 H       
  31 H31            6.6803     5.5640    -0.0545 H       
  32 H32            4.7239     4.0348    -0.0651 H       
  33 H33           10.6288     3.2847     0.0002 H       
  34 H34            3.3397    -0.5109    -0.0849 H       
  35 H35           12.9001     3.8438     1.0865 H       
  36 H36           14.8547     5.3188     0.8493 H       
  37 H37           12.7541     7.8953    -1.6377 H       
  38 H38           10.7321     6.5019    -1.4877 H       
@<TRIPOS>BOND
   1    1    2 ar
   2    1    5 ar
   3    1   24 1
   4    2    3 ar
   5    2   25 1
   6    3   17 ar
   7    3   26 1
   8    4    5 ar
   9    4    6 1
  10    4   17 ar
  11    5   27 1
  12    6    7 1
  13    7    8 1
  14    7   28 1
  15    7   29 1
  16    8    9 ar
  17    8   13 ar
  18    9   10 ar
  19   10   11 ar
  20   10   30 1
  21   11   12 ar
  22   11   14 1
  23   12   13 ar
  24   12   31 1
  25   13   32 1
  26   14   15 am
  27   14   16 2
  28   15   18 1
  29   15   33 1
  30   17   34 1
  31   18   19 ar
  32   18   23 ar
  33   19   20 ar
  34   19   35 1
  35   20   21 ar
  36   20   36 1
  37   21   22 ar
  38   22   23 ar
  39   22   37 1
  40   23   38 1

#	End of record

