#	Name: ASD02500753
#	Creating user name:	WinNT
#	Creation time:	15. 06. 2019 20:23

#	Modifying user name:	WinNT
#	Modification time:	15. 06. 2019 20:23

#	Program:	/corina/corina34_cracker 3.40 0067  02.08.2006

@<TRIPOS>MOLECULE
ASD02500753
  48   51    0    0    0
SMALL
NO_CHARGES


@<TRIPOS>ATOM
   1 C1            -0.0167     1.3774     0.0096 C.ar    
   2 C2             0.0021    -0.0041     0.0020 C.ar    
   3 C3             1.2219    -0.6636    -0.0132 C.ar    
   4 C4             2.3825     0.0946    -0.0203 C.ar    
   5 C5             2.2866     1.4733    -0.0120 C.ar    
   6 N6             1.1084     2.0677     0.0026 N.ar    
   7 S7            -1.5600     2.2274     0.0215 S.o2    
   8 O8            -1.8439     2.5627    -1.3299 O.2     
   9 O9            -2.4366     1.4563     0.8316 O.2     
  10 N10           -1.3248     3.6595     0.8191 N.am    
  11 C11           -0.9185     4.8663     0.0854 C.3     
  12 C12           -1.9293     5.9819     0.3790 C.3     
  13 N13           -2.1235     6.0688     1.8331 N.am    
  14 C14           -2.5297     4.8620     2.5669 C.3     
  15 C15           -1.5244     3.7478     2.2725 C.3     
  16 S16           -1.8883     7.5009     2.6307 S.o2    
  17 O17           -1.6049     7.1656     3.9822 O.2     
  18 O18           -1.0113     8.2718     1.8209 O.2     
  19 O19           -7.0413    10.3608     2.6517 O.3     
  20 C20           -5.8558     9.6921     2.6580 C.ar    
  21 C21           -5.5355     8.8218     3.6937 C.ar    
  22 O22           -6.4020     8.6147     4.7226 O.3     
  23 C23           -7.4441     9.5820     4.8906 C.3     
  24 C24           -8.0672     9.8600     3.5158 C.3     
  25 C25           -4.3203     8.1541     3.6823 C.ar    
  26 C26           -3.4315     8.3512     2.6420 C.ar    
  27 C27           -3.7510     9.2145     1.6111 C.ar    
  28 C28           -4.9601     9.8847     1.6173 C.ar    
  29 O29            1.0496     3.4825     0.0103 O.3     
  30 H30           -0.9218    -0.5634     0.0082 H       
  31 H31            1.2667    -1.7426    -0.0191 H       
  32 H32            3.3495    -0.3861    -0.0318 H       
  33 H33            3.1861     2.0710    -0.0170 H       
  34 H34            0.0739     5.1765     0.4124 H       
  35 H35           -0.9051     4.6570    -0.9842 H       
  36 H36           -1.5461     6.9308     0.0037 H       
  37 H37           -2.8790     5.7514    -0.1038 H       
  38 H38           -2.5431     5.0713     3.6365 H       
  39 H39           -3.5222     4.5518     2.2399 H       
  40 H40           -1.9111     2.7999     2.6468 H       
  41 H41           -0.5761     3.9765     2.7588 H       
  42 H42           -8.2043     9.1898     5.5662 H       
  43 H43           -7.0284    10.5031     5.2991 H       
  44 H44           -8.8593    10.6022     3.6145 H       
  45 H45           -8.4765     8.9374     3.1042 H       
  46 H46           -4.0681     7.4791     4.4868 H       
  47 H47           -3.0548     9.3660     0.7995 H       
  48 H48           -5.2074    10.5588     0.8105 H       
@<TRIPOS>BOND
   1    1    2 ar
   2    1    6 ar
   3    1    7 1
   4    2    3 ar
   5    2   30 1
   6    3    4 ar
   7    3   31 1
   8    4    5 ar
   9    4   32 1
  10    5    6 ar
  11    5   33 1
  12    6   29 1
  13    7    8 2
  14    7    9 2
  15    7   10 am
  16   10   11 1
  17   10   15 1
  18   11   12 1
  19   11   34 1
  20   11   35 1
  21   12   13 1
  22   12   36 1
  23   12   37 1
  24   13   14 1
  25   13   16 am
  26   14   15 1
  27   14   38 1
  28   14   39 1
  29   15   40 1
  30   15   41 1
  31   16   17 2
  32   16   18 2
  33   16   26 1
  34   19   20 1
  35   19   24 1
  36   20   21 ar
  37   20   28 ar
  38   21   22 1
  39   21   25 ar
  40   22   23 1
  41   23   24 1
  42   23   42 1
  43   23   43 1
  44   24   44 1
  45   24   45 1
  46   25   26 ar
  47   25   46 1
  48   26   27 ar
  49   27   28 ar
  50   27   47 1
  51   28   48 1

#	End of record

