#	Name: ASD02810005
#	Creating user name:	WinNT
#	Creation time:	15. 06. 2019 20:26

#	Modifying user name:	WinNT
#	Modification time:	15. 06. 2019 20:26

#	Program:	/corina/corina34_cracker 3.40 0067  02.08.2006

@<TRIPOS>MOLECULE
ASD02810005
 146  146    0    0    0
SMALL
NO_CHARGES


@<TRIPOS>ATOM
   1 C1             0.0966     3.5762     0.7782 C.3     
   2 C2           -19.9600   -14.8525    -6.5886 C.3     
   3 C3             1.1264     1.2618     2.7953 C.3     
   4 C4            -0.1418     1.2507     1.9395 C.3     
   5 C5             0.0841     2.0715     0.6960 C.2     
   6 N6            -0.4656    -0.1315     1.5618 N.3     
   7 O7             0.2552     1.5234    -0.3664 O.2     
   8 C8             0.8786     0.4759     4.0844 C.3     
   9 C9             2.1791     0.3867     4.8854 C.3     
  10 C10           -0.1868     1.1889     4.9196 C.3     
  11 C11           -2.4531    -2.5199     2.2823 C.3     
  12 C12           -2.2237    -1.6866     1.0198 C.3     
  13 C13           -3.4728    -1.6975     0.1768 C.2     
  14 N14           -1.8999    -0.3044     1.3975 N.3     
  15 O15           -4.0377    -0.6564    -0.0836 O.2     
  16 O16           -3.6085    -2.0352     2.9695 O.3     
  17 C17           -4.8073    -2.6166    -2.5692 C.3     
  18 C18           -5.1765    -2.8749    -1.1070 C.3     
  19 C19           -5.8505    -4.2176    -0.9888 C.2     
  20 N20           -3.9622    -2.8643    -0.2876 N.am    
  21 O21           -5.3644    -5.0806    -0.2890 O.2     
  22 S22           -3.9959    -1.0004    -2.7115 S.3     
  23 C23           -8.5467    -5.7771    -0.3072 C.3     
  24 C24           -7.6488    -5.7646    -1.5459 C.3     
  25 C25           -8.4841    -6.0172    -2.7745 C.2     
  26 N26           -6.9935    -4.4593    -1.6609 N.am    
  27 O27           -8.5279    -5.1885    -3.6590 O.2     
  28 C28           -7.6839    -5.6453     0.9494 C.3     
  29 C29           -8.5684    -5.6577     2.1696 C.2     
  30 O30           -9.7704    -5.7618     2.0462 O.2     
  31 N31           -8.0236    -5.5532     3.3979 N.am    
  32 C32           -8.9744    -8.1899    -5.1007 C.3     
  33 C33           -9.9049    -7.4597    -4.1302 C.3     
  34 C34          -11.0947    -8.3319    -3.8227 C.2     
  35 N35           -9.1827    -7.1639    -2.8904 N.am    
  36 O36          -11.2403    -8.7881    -2.7084 O.2     
  37 C37           -9.6693    -8.3442    -6.4550 C.3     
  38 C38           -9.8549    -6.9659    -7.0929 C.3     
  39 C39           -8.8117    -9.2190    -7.3715 C.3     
  40 C40          -14.2591    -8.7207    -3.8635 C.3     
  41 C41          -13.1159    -9.5085    -4.5065 C.3     
  42 C42          -13.5947   -10.1282    -5.7940 C.2     
  43 N43          -11.9969    -8.6051    -4.7859 N.am    
  44 O44          -13.0545    -9.8432    -6.8418 O.2     
  45 C45          -13.8185    -8.2038    -2.5182 C.ar    
  46 C46          -13.2159    -6.9634    -2.4191 C.ar    
  47 C47          -12.8111    -6.4873    -1.1870 C.ar    
  48 C48          -13.0098    -7.2550    -0.0487 C.ar    
  49 C49          -13.6147    -8.4993    -0.1508 C.ar    
  50 C50          -14.0228    -8.9684    -1.3844 C.ar    
  51 O51          -12.6121    -6.7890     1.1644 O.3     
  52 C52          -14.2406   -12.8341    -7.3519 C.3     
  53 C53          -15.0888   -11.6014    -7.0328 C.3     
  54 C54          -16.5324   -12.0088    -6.8877 C.2     
  55 N55          -14.6233   -10.9990    -5.7811 N.am    
  56 O56          -17.1151   -11.8150    -5.8418 O.2     
  57 C57          -12.7973   -12.4041    -7.6219 C.3     
  58 C58          -11.9619   -13.6183    -7.9362 C.2     
  59 O59          -12.4707   -14.7192    -7.9435 O.2     
  60 N60          -10.6492   -13.4808    -8.2091 N.am    
  61 C61          -19.2408   -13.0186    -9.1586 C.3     
  62 C62          -18.5795   -12.9845    -7.7793 C.3     
  63 C63          -18.6547   -14.3527    -7.1521 C.2     
  64 N64          -17.1761   -12.5885    -7.9203 N.am    
  65 O65          -17.6691   -15.0486    -7.1012 O.2     
  66 N66          -19.9708   -10.2852   -11.6808 N.pl3   
  67 C67          -20.5228   -10.0672   -12.9209 C.2     
  68 N68          -21.0162   -11.0649   -13.5992 N.2     
  69 N69          -20.5543    -8.7968   -13.4456 N.pl3   
  70 C70          -19.2759   -11.6048    -9.7424 C.3     
  71 C71          -19.9372   -11.6389   -11.1217 C.3     
  72 H72            1.1126     3.9211     0.9703 H       
  73 H73           -0.2570     3.9945    -0.1641 H       
  74 H74           -0.5567     3.9012     1.5879 H       
  75 H75          -20.7293   -14.0925    -6.7247 H       
  76 H76          -20.2544   -15.7646    -7.1078 H       
  77 H77          -19.8403   -15.0621    -5.5256 H       
  78 H78            1.9434     0.8010     2.2402 H       
  79 H79            1.3894     2.2905     3.0418 H       
  80 H80           -0.9685     1.6748     2.5095 H       
  81 H81            0.0295    -0.4033     0.7257 H       
  82 H82            0.5345    -0.5284     3.8372 H       
  83 H83            1.9838    -0.0961     5.8429 H       
  84 H84            2.9106    -0.1970     4.3266 H       
  85 H85            2.5695     1.3898     5.0572 H       
  86 H86           -1.1134     1.2524     4.3490 H       
  87 H87           -0.3633     0.6290     5.8380 H       
  88 H88            0.1572     2.1932     5.1668 H       
  89 H89           -2.6055    -3.5633     2.0063 H       
  90 H90           -1.5827    -2.4398     2.9336 H       
  91 H91           -1.3970    -2.1106     0.4498 H       
  92 H92           -2.3950    -0.0326     2.2336 H       
  93 H93           -3.8144    -2.5181     3.7816 H       
  94 H94           -4.1283    -3.3957    -2.9156 H       
  95 H95           -5.7108    -2.6245    -3.1789 H       
  96 H96           -5.8554    -2.0958    -0.7606 H       
  97 H97           -3.5103    -3.6970    -0.0792 H       
  98 H98           -3.7325    -0.9089    -4.0272 H       
  99 H99           -9.2461    -4.9426    -0.3569 H       
 100 H100          -9.1016    -6.7146    -0.2702 H       
 101 H101          -6.8924    -6.5440    -1.4543 H       
 102 H102          -7.3823    -3.7691    -2.2206 H       
 103 H103          -6.9845    -6.4799     0.9992 H       
 104 H104          -7.1290    -4.7079     0.9125 H       
 105 H105          -7.0622    -5.4700     3.4965 H       
 106 H106          -8.5929    -5.5612     4.1832 H       
 107 H107          -8.0569    -7.6150    -5.2264 H       
 108 H108          -8.7338    -9.1752    -4.7014 H       
 109 H109         -10.2446    -6.5285    -4.5837 H       
 110 H110          -9.2072    -7.7935    -2.1528 H       
 111 H111         -10.6431    -8.8127    -6.3124 H       
 112 H112          -8.8790    -6.5299    -7.3063 H       
 113 H113         -10.4181    -7.0678    -8.0205 H       
 114 H114         -10.3999    -6.3182    -6.4062 H       
 115 H115          -8.6795   -10.2009    -6.9171 H       
 116 H116          -9.3068    -9.3289    -8.3364 H       
 117 H117          -7.8379    -8.7505    -7.5141 H       
 118 H118         -14.5278    -7.8815    -4.5050 H       
 119 H119         -15.1234    -9.3727    -3.7370 H       
 120 H120         -12.7876   -10.2937    -3.8254 H       
 121 H121         -11.9054    -8.2035    -5.6641 H       
 122 H122         -13.0611    -6.3663    -3.3056 H       
 123 H123         -12.3401    -5.5185    -1.1102 H       
 124 H124         -13.7705    -9.0987     0.7339 H       
 125 H125         -14.4977    -9.9351    -1.4639 H       
 126 H126         -13.2883    -6.2786     1.6307 H       
 127 H127         -14.2630   -13.5198    -6.5048 H       
 128 H128         -14.6421   -13.3330    -8.2339 H       
 129 H129         -14.9953   -10.8767    -7.8416 H       
 130 H130         -15.0553   -11.2269    -4.9431 H       
 131 H131         -12.7749   -11.7185    -8.4689 H       
 132 H132         -12.3958   -11.9052    -6.7398 H       
 133 H133         -10.2422   -12.6004    -8.2033 H       
 134 H134         -10.1115   -14.2624    -8.4115 H       
 135 H135         -18.6695   -13.6705    -9.8194 H       
 136 H136         -20.2582   -13.3982    -9.0644 H       
 137 H137         -19.0980   -12.2652    -7.1454 H       
 138 H138         -16.7101   -12.7434    -8.7568 H       
 139 H139         -19.6036    -9.5428   -11.1760 H       
 140 H140         -21.4057   -10.9110   -14.4742 H       
 141 H141         -20.1872    -8.0543   -12.9408 H       
 142 H142         -20.9438    -8.6429   -14.3205 H       
 143 H143         -19.8472   -10.9529    -9.0816 H       
 144 H144         -18.2585   -11.2253    -9.8366 H       
 145 H145         -20.9546   -12.0185   -11.0275 H       
 146 H146         -19.3659   -12.2909   -11.7825 H       
@<TRIPOS>BOND
   1    1    5 1
   2    1   72 1
   3    1   73 1
   4    1   74 1
   5    2   63 1
   6    2   75 1
   7    2   76 1
   8    2   77 1
   9    3    8 1
  10    3    4 1
  11    3   78 1
  12    3   79 1
  13    4    6 1
  14    4    5 1
  15    4   80 1
  16    5    7 2
  17    6   14 1
  18    6   81 1
  19    8    9 1
  20    8   10 1
  21    8   82 1
  22    9   83 1
  23    9   84 1
  24    9   85 1
  25   10   86 1
  26   10   87 1
  27   10   88 1
  28   11   16 1
  29   11   12 1
  30   11   89 1
  31   11   90 1
  32   12   14 1
  33   12   13 1
  34   12   91 1
  35   13   15 2
  36   13   20 am
  37   14   92 1
  38   16   93 1
  39   17   22 1
  40   17   18 1
  41   17   94 1
  42   17   95 1
  43   18   19 1
  44   18   20 1
  45   18   96 1
  46   19   21 2
  47   19   26 am
  48   20   97 1
  49   22   98 1
  50   23   28 1
  51   23   24 1
  52   23   99 1
  53   23  100 1
  54   24   26 1
  55   24   25 1
  56   24  101 1
  57   25   27 2
  58   25   35 am
  59   26  102 1
  60   28   29 1
  61   28  103 1
  62   28  104 1
  63   29   30 2
  64   29   31 am
  65   31  105 1
  66   31  106 1
  67   32   37 1
  68   32   33 1
  69   32  107 1
  70   32  108 1
  71   33   35 1
  72   33   34 1
  73   33  109 1
  74   34   36 2
  75   34   43 am
  76   35  110 1
  77   37   38 1
  78   37   39 1
  79   37  111 1
  80   38  112 1
  81   38  113 1
  82   38  114 1
  83   39  115 1
  84   39  116 1
  85   39  117 1
  86   40   45 1
  87   40   41 1
  88   40  118 1
  89   40  119 1
  90   41   42 1
  91   41   43 1
  92   41  120 1
  93   42   44 2
  94   42   55 am
  95   43  121 1
  96   45   46 ar
  97   45   50 ar
  98   46   47 ar
  99   46  122 1
 100   47   48 ar
 101   47  123 1
 102   48   49 ar
 103   48   51 1
 104   49   50 ar
 105   49  124 1
 106   50  125 1
 107   51  126 1
 108   52   57 1
 109   52   53 1
 110   52  127 1
 111   52  128 1
 112   53   55 1
 113   53   54 1
 114   53  129 1
 115   54   56 2
 116   54   64 am
 117   55  130 1
 118   57   58 1
 119   57  131 1
 120   57  132 1
 121   58   59 2
 122   58   60 am
 123   60  133 1
 124   60  134 1
 125   61   70 1
 126   61   62 1
 127   61  135 1
 128   61  136 1
 129   62   64 1
 130   62   63 1
 131   62  137 1
 132   63   65 2
 133   64  138 1
 134   66   71 1
 135   66   67 1
 136   66  139 1
 137   67   68 2
 138   67   69 1
 139   68  140 1
 140   69  141 1
 141   69  142 1
 142   70   71 1
 143   70  143 1
 144   70  144 1
 145   71  145 1
 146   71  146 1

#	End of record

