#	Name: ASD01911104
#	Creating user name:	WinNT
#	Creation time:	15. 06. 2019 19:57

#	Modifying user name:	WinNT
#	Modification time:	15. 06. 2019 19:57

#	Program:	/corina/corina34_cracker 3.40 0067  02.08.2006

@<TRIPOS>MOLECULE
ASD01911104
  45   48    0    0    0
SMALL
NO_CHARGES


@<TRIPOS>ATOM
   1 C1             0.1170     1.0172     0.1942 C.2     
   2 O2             1.1321     1.6840     0.2439 O.2     
   3 C3             0.2040    -0.4539     0.0748 C.ar    
   4 C4             1.2101    -1.0361    -0.6978 C.ar    
   5 C5             1.2856    -2.4095    -0.8050 C.ar    
   6 C6             0.3669    -3.2092    -0.1488 C.ar    
   7 C7            -0.6329    -2.6384     0.6187 C.ar    
   8 C8            -0.7161    -1.2666     0.7389 C.ar    
   9 N9            -1.0878     1.6184     0.2534 N.am    
  10 C10           -2.3209     0.8452     0.0528 C.3     
  11 C11           -3.1501     1.5159    -1.0469 C.3     
  12 C12           -3.3811     2.9842    -0.6823 C.3     
  13 C13           -2.0348     3.7053    -0.5847 C.3     
  14 C14           -1.1932     3.0583     0.5258 C.3     
  15 O15           -5.4036     0.6859    -0.2192 O.3     
  16 N16           -6.3555     0.0674    -0.6463 N.2     
  17 C17           -6.1546    -0.2632    -1.8923 C.2     
  18 N18           -4.9430     0.2153    -2.2432 N.2     
  19 C19           -4.4777     0.8144    -1.1744 C.2     
  20 O20           -7.0055    -0.9585    -2.6870 O.3     
  21 C21           -8.1416    -1.4519    -2.1277 C.ar    
  22 C22           -8.4763    -1.1168    -0.8236 C.ar    
  23 C23           -9.6317    -1.6196    -0.2574 C.ar    
  24 C24          -10.4539    -2.4566    -0.9889 C.ar    
  25 C25          -10.1224    -2.7925    -2.2885 C.ar    
  26 C26           -8.9716    -2.2870    -2.8617 C.ar    
  27 H27            1.9276    -0.4130    -1.2108 H       
  28 H28            2.0633    -2.8613    -1.4028 H       
  29 H29            0.4302    -4.2838    -0.2363 H       
  30 H30           -1.3469    -3.2683     1.1284 H       
  31 H31           -1.4941    -0.8224     1.3422 H       
  32 H32           -2.0696    -0.1719    -0.2480 H       
  33 H33           -2.8934     0.8233     0.9801 H       
  34 H34           -2.6141     1.4563    -1.9941 H       
  35 H35           -3.9917     3.4576    -1.4511 H       
  36 H36           -3.8952     3.0435     0.2771 H       
  37 H37           -1.5093     3.6251    -1.5363 H       
  38 H38           -2.2012     4.7562    -0.3480 H       
  39 H39           -1.6756     3.2133     1.4909 H       
  40 H40           -0.1976     3.5019     0.5372 H       
  41 H41           -7.8340    -0.4636    -0.2516 H       
  42 H42           -9.8927    -1.3590     0.7577 H       
  43 H43          -11.3566    -2.8490    -0.5442 H       
  44 H44          -10.7659    -3.4470    -2.8576 H       
  45 H45           -8.7155    -2.5458    -3.8784 H       
@<TRIPOS>BOND
   1    1    2 2
   2    1    3 1
   3    1    9 am
   4    3    4 ar
   5    3    8 ar
   6    4    5 ar
   7    4   27 1
   8    5    6 ar
   9    5   28 1
  10    6    7 ar
  11    6   29 1
  12    7    8 ar
  13    7   30 1
  14    8   31 1
  15    9   10 1
  16    9   14 1
  17   10   11 1
  18   10   32 1
  19   10   33 1
  20   11   12 1
  21   11   19 1
  22   11   34 1
  23   12   13 1
  24   12   35 1
  25   12   36 1
  26   13   14 1
  27   13   37 1
  28   13   38 1
  29   14   39 1
  30   14   40 1
  31   15   16 1
  32   15   19 1
  33   16   17 2
  34   17   18 1
  35   17   20 1
  36   18   19 2
  37   20   21 1
  38   21   22 ar
  39   21   26 ar
  40   22   23 ar
  41   22   41 1
  42   23   24 ar
  43   23   42 1
  44   24   25 ar
  45   24   43 1
  46   25   26 ar
  47   25   44 1
  48   26   45 1

#	End of record

