#	Name: ASD01940096
#	Creating user name:	WinNT
#	Creation time:	15. 06. 2019 20:11

#	Modifying user name:	WinNT
#	Modification time:	15. 06. 2019 20:11

#	Program:	/corina/corina34_cracker 3.40 0067  02.08.2006

@<TRIPOS>MOLECULE
ASD01940096
  57   61    0    0    0
SMALL
NO_CHARGES


@<TRIPOS>ATOM
   1 C1             3.1729     1.2445    -1.5953 C.ar    
   2 C2             2.9989    -0.1367    -1.6508 C.ar    
   3 C3             4.0364    -0.9456    -2.0919 C.ar    
   4 C4             5.2380    -0.3803    -2.4744 C.ar    
   5 C5             5.4099     0.9906    -2.4190 C.ar    
   6 C6             4.3786     1.8035    -1.9860 C.ar    
   7 O7             2.1597     2.0424    -1.1638 O.3     
   8 C8             2.4096     3.4490    -1.1333 C.3     
   9 N9             1.7807    -0.7069    -1.2623 N.pl3   
  10 C10            1.6383    -2.0796    -1.2365 C.2     
  11 C11            2.4527    -2.9058    -0.3495 C.2     
  12 C12            2.2781    -4.2905    -0.3528 C.2     
  13 N13            1.3576    -4.8543    -1.1763 N.am    
  14 C14            0.5994    -4.1103    -1.9992 C.2     
  15 C15            0.7127    -2.7194    -2.0485 C.2     
  16 C16            3.4521    -2.3236     0.5475 C.2     
  17 N17            4.1645    -3.1590     1.3364 N.am    
  18 C18            3.9583    -4.4856     1.2956 C.2     
  19 N19            3.0499    -5.0542     0.4850 N.am    
  20 C20            1.1871    -6.3094    -1.1679 C.3     
  21 O21           -0.2139    -4.6653    -2.7205 O.2     
  22 O22            3.6369    -1.1212     0.5819 O.2     
  23 C23            2.8887    -6.4461     0.4962 C.ar    
  24 C24            3.7171    -7.2485    -0.2769 C.ar    
  25 C25            3.5558    -8.6202    -0.2637 C.ar    
  26 C26            2.5702    -9.1944     0.5179 C.ar    
  27 C27            1.7433    -8.3978     1.2886 C.ar    
  28 C28            1.9041    -7.0260     1.2848 C.ar    
  29 O29            4.6208    -5.2011     2.0213 O.2     
  30 C30            5.1297    -2.6347     2.2066 C.ar    
  31 C31            6.4786    -2.8578     1.9650 C.ar    
  32 C32            7.4276    -2.3394     2.8242 C.ar    
  33 C33            7.0355    -1.5992     3.9244 C.ar    
  34 C34            5.6928    -1.3757     4.1680 C.ar    
  35 C35            4.7393    -1.8863     3.3089 C.ar    
  36 H36            3.9050    -2.0167    -2.1358 H       
  37 H37            6.0450    -1.0109    -2.8172 H       
  38 H38            6.3507     1.4280    -2.7190 H       
  39 H39            4.5161     2.8739    -1.9443 H       
  40 H40            3.2480     3.6547    -0.4679 H       
  41 H41            2.6492     3.7973    -2.1380 H       
  42 H42            1.5222     3.9679    -0.7708 H       
  43 H43            1.0368    -0.1374    -1.0111 H       
  44 H44            0.0899    -2.1464    -2.7195 H       
  45 H45            0.8228    -6.6269    -0.1909 H       
  46 H46            0.4671    -6.5953    -1.9347 H       
  47 H47            2.1446    -6.7885    -1.3719 H       
  48 H48            4.4866    -6.8006    -0.8881 H       
  49 H49            4.1998    -9.2449    -0.8649 H       
  50 H50            2.4457   -10.2672     0.5263 H       
  51 H51            0.9740    -8.8491     1.8976 H       
  52 H52            1.2579    -6.4044     1.8869 H       
  53 H53            6.7855    -3.4365     1.1063 H       
  54 H54            8.4771    -2.5126     2.6368 H       
  55 H55            7.7794    -1.1952     4.5951 H       
  56 H56            5.3895    -0.7978     5.0285 H       
  57 H57            3.6908    -1.7111     3.4994 H       
@<TRIPOS>BOND
   1    1    2 ar
   2    1    7 1
   3    1    6 ar
   4    2    3 ar
   5    2    9 1
   6    3    4 ar
   7    3   36 1
   8    4    5 ar
   9    4   37 1
  10    5    6 ar
  11    5   38 1
  12    6   39 1
  13    7    8 1
  14    8   40 1
  15    8   41 1
  16    8   42 1
  17    9   10 1
  18    9   43 1
  19   10   11 1
  20   10   15 2
  21   11   12 2
  22   11   16 1
  23   12   13 1
  24   12   19 1
  25   13   14 am
  26   13   20 1
  27   14   15 1
  28   14   21 2
  29   15   44 1
  30   16   17 am
  31   16   22 2
  32   17   18 am
  33   17   30 1
  34   18   19 am
  35   18   29 2
  36   19   23 1
  37   20   45 1
  38   20   46 1
  39   20   47 1
  40   23   24 ar
  41   23   28 ar
  42   24   25 ar
  43   24   48 1
  44   25   26 ar
  45   25   49 1
  46   26   27 ar
  47   26   50 1
  48   27   28 ar
  49   27   51 1
  50   28   52 1
  51   30   31 ar
  52   30   35 ar
  53   31   32 ar
  54   31   53 1
  55   32   33 ar
  56   32   54 1
  57   33   34 ar
  58   33   55 1
  59   34   35 ar
  60   34   56 1
  61   35   57 1

#	End of record

