#	Name: ASD01910066
#	Creating user name:	WinNT
#	Creation time:	15. 06. 2019 19:55

#	Modifying user name:	WinNT
#	Modification time:	15. 06. 2019 19:55

#	Program:	/corina/corina34_cracker 3.40 0067  02.08.2006

@<TRIPOS>MOLECULE
ASD01910066
  43   46    0    0    0
SMALL
NO_CHARGES


@<TRIPOS>ATOM
   1 N1            -0.0169     1.3963     0.0097 N.pl3   
   2 N2             0.0021    -0.0041     0.0020 N.2     
   3 C3            -1.2425    -0.4343     0.0116 C.2     
   4 C4            -2.0958     0.6918     0.0258 C.2     
   5 C5            -1.3168     1.8013     0.0302 C.2     
   6 C6             1.1056     2.2342     0.0035 C.ar    
   7 C7             2.3820     1.6873    -0.0121 C.ar    
   8 C8             3.4868     2.5161    -0.0182 C.ar    
   9 C9             3.3230     3.8891    -0.0087 C.ar    
  10 C10            2.0533     4.4368     0.0069 C.ar    
  11 C11            0.9444     3.6135     0.0072 C.ar    
  12 C12           -1.6733    -1.8534     0.0073 C.ar    
  13 N13           -3.5005     0.6662     0.0386 N.am    
  14 C14           -4.1955     1.8209     0.0515 C.2     
  15 C15           -5.6734     1.7940     0.0650 C.ar    
  16 O16           -3.6068     2.8847     0.0520 O.2     
  17 C17           -0.9381    -2.8056    -0.6966 C.ar    
  18 C18           -1.3434    -4.1248    -0.6966 C.ar    
  19 C19           -2.4773    -4.5027    -0.0002 C.ar    
  20 C20           -3.2109    -3.5620     0.7001 C.ar    
  21 C21           -2.8117    -2.2410     0.7120 C.ar    
  22 C22           -6.3962     2.9881     0.0784 C.ar    
  23 C23           -7.7753     2.9559     0.0910 C.ar    
  24 C24           -8.4421     1.7435     0.0909 C.ar    
  25 C25           -7.7317     0.5563     0.0781 C.ar    
  26 C26           -6.3524     0.5744     0.0587 C.ar    
  27 H27           -1.6649     2.8236     0.0409 H       
  28 H28            2.5106     0.6150    -0.0192 H       
  29 H29            4.4797     2.0913    -0.0300 H       
  30 H30            4.1885     4.5351    -0.0131 H       
  31 H31            1.9286     5.5096     0.0146 H       
  32 H32           -0.0469     4.0418     0.0194 H       
  33 H33           -3.9702    -0.1825     0.0382 H       
  34 H34           -0.0531    -2.5115    -1.2413 H       
  35 H35           -0.7745    -4.8634    -1.2417 H       
  36 H36           -2.7912    -5.5360    -0.0036 H       
  37 H37           -4.0955    -3.8626     1.2418 H       
  38 H38           -3.3852    -1.5073     1.2591 H       
  39 H39           -5.8769     3.9350     0.0792 H       
  40 H40           -8.3357     3.8790     0.1013 H       
  41 H41           -9.5218     1.7238     0.1011 H       
  42 H42           -8.2582    -0.3867     0.0788 H       
  43 H43           -5.7990    -0.3530     0.0488 H       
@<TRIPOS>BOND
   1    1    2 1
   2    1    6 1
   3    1    5 1
   4    2    3 2
   5    3    4 1
   6    3   12 1
   7    4    5 2
   8    4   13 1
   9    5   27 1
  10    6    7 ar
  11    6   11 ar
  12    7    8 ar
  13    7   28 1
  14    8    9 ar
  15    8   29 1
  16    9   10 ar
  17    9   30 1
  18   10   11 ar
  19   10   31 1
  20   11   32 1
  21   12   17 ar
  22   12   21 ar
  23   13   14 am
  24   13   33 1
  25   14   15 1
  26   14   16 2
  27   15   22 ar
  28   15   26 ar
  29   17   18 ar
  30   17   34 1
  31   18   19 ar
  32   18   35 1
  33   19   20 ar
  34   19   36 1
  35   20   21 ar
  36   20   37 1
  37   21   38 1
  38   22   23 ar
  39   22   39 1
  40   23   24 ar
  41   23   40 1
  42   24   25 ar
  43   24   41 1
  44   25   26 ar
  45   25   42 1
  46   26   43 1

#	End of record

