#	Name: ASD00311238
#	Creating user name:	WinNT
#	Creation time:	15. 06. 2019 18:34

#	Modifying user name:	WinNT
#	Modification time:	15. 06. 2019 18:34

#	Program:	/corina/corina34_cracker 3.40 0067  02.08.2006

@<TRIPOS>MOLECULE
ASD00311238
  37   40    0    0    0
SMALL
NO_CHARGES


@<TRIPOS>ATOM
   1 C1            -0.0167     1.3782     0.0096 C.2     
   2 C2             0.0021    -0.0041     0.0020 C.2     
   3 C3             1.2580    -0.6768    -0.0139 C.2     
   4 C4             2.4324     0.0680    -0.0214 C.2     
   5 C5             2.3576     1.4772    -0.0131 C.2     
   6 N6             1.1645     2.0913     0.0022 N.am    
   7 C7            -1.3434    -0.5749     0.0126 C.2     
   8 C8            -2.3224     0.3258     0.0274 C.2     
   9 S9            -1.6795     1.9562     0.0358 S.3     
  10 O10            3.3817     2.1399    -0.0192 O.2     
  11 C11           -1.5960    -2.0352     0.0069 C.ar    
  12 C12           -2.4695    -2.5981     0.9365 C.ar    
  13 C13           -2.7012    -3.9584     0.9260 C.ar    
  14 C14           -2.0683    -4.7634    -0.0041 C.ar    
  15 C15           -1.2002    -4.2107    -0.9287 C.ar    
  16 C16           -0.9655    -2.8509    -0.9319 C.ar    
  17 C17            3.7462    -0.6098    -0.0374 C.ar    
  18 C18            4.5908    -0.4698    -1.1418 C.ar    
  19 C19            5.8044    -1.0960    -1.1575 C.ar    
  20 C20            6.2021    -1.8772    -0.0676 C.ar    
  21 C21            5.3563    -2.0164     1.0377 C.ar    
  22 C22            4.1452    -1.3854     1.0542 C.ar    
  23 C23            7.4742    -2.5344    -0.0835 C.1     
  24 N24            8.4834    -3.0558    -0.0961 N.1     
  25 O25            1.3076    -2.0289    -0.0212 O.3     
  26 H26            1.1316     3.0608     0.0077 H       
  27 H27           -3.3749     0.0841     0.0365 H       
  28 H28           -2.9636    -1.9707     1.6636 H       
  29 H29           -3.3776    -4.3955     1.6456 H       
  30 H30           -2.2524    -5.8276    -0.0083 H       
  31 H31           -0.7087    -4.8442    -1.6522 H       
  32 H32           -0.2912    -2.4199    -1.6572 H       
  33 H33            4.2836     0.1334    -1.9833 H       
  34 H34            6.4567    -0.9883    -2.0115 H       
  35 H35            5.6627    -2.6194     1.8797 H       
  36 H36            3.4938    -1.4895     1.9093 H       
  37 H37            2.2048    -2.3895    -0.0320 H       
@<TRIPOS>BOND
   1    1    2 2
   2    1    6 1
   3    1    9 1
   4    2    3 1
   5    2    7 1
   6    3    4 2
   7    3   25 1
   8    4    5 1
   9    4   17 1
  10    5    6 am
  11    5   10 2
  12    6   26 1
  13    7    8 2
  14    7   11 1
  15    8    9 1
  16    8   27 1
  17   11   12 ar
  18   11   16 ar
  19   12   13 ar
  20   12   28 1
  21   13   14 ar
  22   13   29 1
  23   14   15 ar
  24   14   30 1
  25   15   16 ar
  26   15   31 1
  27   16   32 1
  28   17   18 ar
  29   17   22 ar
  30   18   19 ar
  31   18   33 1
  32   19   20 ar
  33   19   34 1
  34   20   21 ar
  35   20   23 1
  36   21   22 ar
  37   21   35 1
  38   22   36 1
  39   23   24 3
  40   25   37 1

#	End of record

