#	Name: ASD07030063
#	Creating user name:	WinNT
#	Creation time:	15. 06. 2019 21:08

#	Modifying user name:	WinNT
#	Modification time:	15. 06. 2019 21:08

#	Program:	/corina/corina34_cracker 3.40 0067  02.08.2006

@<TRIPOS>MOLECULE
ASD07030063
  58   59    0    0    0
SMALL
NO_CHARGES


@<TRIPOS>ATOM
   1 C1            -0.0167     1.3788     0.0096 C.ar    
   2 C2             0.0021    -0.0041     0.0020 C.ar    
   3 C3            -1.1834    -0.7171     0.0090 C.ar    
   4 C4            -2.3920    -0.0511     0.0237 C.ar    
   5 C5            -2.4168     1.3422     0.0319 C.ar    
   6 C6            -1.2199     2.0551     0.0305 C.ar    
   7 C7            -3.7133     2.0638     0.0471 C.ar    
   8 C8            -4.9104     1.3507     0.0533 C.ar    
   9 C9            -3.7381     3.4569     0.0611 C.ar    
  10 C10           -4.9468     4.1230     0.0752 C.ar    
  11 C11           -6.1322     3.4101     0.0759 C.ar    
  12 C12           -6.1135     2.0270     0.0674 C.ar    
  13 C13           -7.4489     4.1430     0.0923 C.3     
  14 C14           -8.4042     3.9056    -1.0790 C.3     
  15 C15           -8.7174     3.3120     0.2959 C.3     
  16 N16           -7.9677     2.9808    -2.1336 N.3     
  17 C17           -8.6362     3.2809    -3.4068 C.3     
  18 C18           -8.1571     2.2992    -4.4781 C.3     
  19 N19           -8.8257     2.5992    -5.7513 N.3     
  20 C20           -8.2206     1.8364    -6.8584 C.3     
  21 C21          -10.2654     2.2699    -5.6842 C.3     
  22 C22          -10.6290     1.7928    -7.1125 C.3     
  23 C23           -9.3488     1.0165    -7.5189 C.3     
  24 N24           -9.1927     1.0007    -8.9795 N.3     
  25 C25            1.2788     2.1486     0.0014 C.3     
  26 F26            2.3534     1.2529    -0.0137 F       
  27 F27            1.3320     2.9599    -1.1371 F       
  28 F28            1.3538     2.9476     1.1473 F       
  29 H29            0.9457    -0.5293    -0.0098 H       
  30 H30           -1.1630    -1.7969     0.0027 H       
  31 H31           -3.3169    -0.6087     0.0285 H       
  32 H32           -1.2334     3.1350     0.0372 H       
  33 H33           -4.8969     0.2709     0.0467 H       
  34 H34           -2.8131     4.0144     0.0612 H       
  35 H35           -4.9672     5.2027     0.0860 H       
  36 H36           -7.0419     1.4754     0.0681 H       
  37 H37           -7.4257     5.1417     0.5284 H       
  38 H38           -9.0097     4.7481    -1.4133 H       
  39 H39           -8.5996     2.2353     0.4180 H       
  40 H40           -9.5290     3.7640     0.8662 H       
  41 H41           -6.9643     2.9999    -2.2387 H       
  42 H42           -9.7148     3.1849    -3.2822 H       
  43 H43           -8.3949     4.2988    -3.7128 H       
  44 H44           -7.0785     2.3952    -4.6026 H       
  45 H45           -8.3984     1.2812    -4.1721 H       
  46 H46           -7.7850     2.5211    -7.5861 H       
  47 H47           -7.4532     1.1662    -6.4711 H       
  48 H48          -10.4389     1.4721    -4.9620 H       
  49 H49          -10.8452     3.1544    -5.4205 H       
  50 H50          -11.4966     1.1332    -7.0948 H       
  51 H51          -10.7986     2.6408    -7.7760 H       
  52 H52           -9.3711     0.0017    -7.1217 H       
  53 H53           -9.9710     0.5347    -9.4214 H       
  54 H54           -9.0786     1.9358    -9.3411 H       
  55 Cl55           7.3534    10.2027     6.1473 Cl      
  56 H56            7.3534    11.5727     6.1473 H       
  57 Cl57          12.3534    16.5727    11.1473 Cl      
  58 H58           12.3534    17.9427    11.1473 H       
@<TRIPOS>BOND
   1    1    2 ar
   2    1   25 1
   3    1    6 ar
   4    2    3 ar
   5    2   29 1
   6    3    4 ar
   7    3   30 1
   8    4    5 ar
   9    4   31 1
  10    5    6 ar
  11    5    7 1
  12    6   32 1
  13    7    8 ar
  14    7    9 ar
  15    8   12 ar
  16    8   33 1
  17    9   10 ar
  18    9   34 1
  19   10   11 ar
  20   10   35 1
  21   11   12 ar
  22   11   13 1
  23   12   36 1
  24   13   14 1
  25   13   15 1
  26   13   37 1
  27   14   15 1
  28   14   16 1
  29   14   38 1
  30   15   39 1
  31   15   40 1
  32   16   17 1
  33   16   41 1
  34   17   18 1
  35   17   42 1
  36   17   43 1
  37   18   19 1
  38   18   44 1
  39   18   45 1
  40   19   20 1
  41   19   21 1
  42   20   23 1
  43   20   46 1
  44   20   47 1
  45   21   22 1
  46   21   48 1
  47   21   49 1
  48   22   23 1
  49   22   50 1
  50   22   51 1
  51   23   24 1
  52   23   52 1
  53   24   53 1
  54   24   54 1
  55   25   26 1
  56   25   27 1
  57   25   28 1
  58   55   56 1
  59   57   58 1

#	End of record

