#	Name: ASD01200298
#	Creating user name:	WinNT
#	Creation time:	15. 06. 2019 19:08

#	Modifying user name:	WinNT
#	Modification time:	15. 06. 2019 19:08

#	Program:	/corina/corina34_cracker 3.40 0067  02.08.2006

@<TRIPOS>MOLECULE
ASD01200298
  30   30    0    0    0
SMALL
NO_CHARGES


@<TRIPOS>ATOM
   1 C1            -0.0211     1.7054     0.0114 C.2     
   2 S2             0.0021    -0.0041     0.0020 S.3     
   3 C3            -1.7592    -0.0390     0.0186 C.2     
   4 C4            -2.1983     1.2199     0.0296 C.2     
   5 N5            -1.2448     2.1345     0.0310 N.2     
   6 N6             1.1041     2.5148     0.0050 N.pl3   
   7 C7            -3.6637     1.5711     0.0449 C.3     
   8 P8            -4.2388     1.7033     1.7698 P.3     
   9 O9            -4.1388     0.2622     2.4808 O.3     
  10 O10           -3.3919     2.6732     2.4993 O.2     
  11 O11           -5.7683     2.2059     1.7884 O.3     
  12 C12           -4.4188     0.0572     3.8670 C.3     
  13 C13           -4.2283    -1.4210     4.2125 C.3     
  14 C14           -6.4735     2.5080     2.9940 C.3     
  15 C15           -7.8968     2.9547     2.6539 C.3     
  16 H16           -2.3758    -0.9256     0.0192 H       
  17 H17            1.9883     2.1161    -0.0059 H       
  18 H18            1.0073     3.4800     0.0115 H       
  19 H19           -3.8142     2.5241    -0.4623 H       
  20 H20           -4.2291     0.7931    -0.4680 H       
  21 H21           -3.7393     0.6614     4.4681 H       
  22 H22           -5.4476     0.3497     4.0770 H       
  23 H23           -4.9077    -2.0252     3.6114 H       
  24 H24           -3.1995    -1.7136     4.0026 H       
  25 H25           -4.4419    -1.5774     5.2699 H       
  26 H26           -6.5124     1.6198     3.6246 H       
  27 H27           -5.9586     3.3085     3.5252 H       
  28 H28           -7.8579     3.8430     2.0233 H       
  29 H29           -8.4117     2.1543     2.1227 H       
  30 H30           -8.4347     3.1852     3.5735 H       
@<TRIPOS>BOND
   1    1    2 1
   2    1    6 1
   3    1    5 2
   4    2    3 1
   5    3    4 2
   6    3   16 1
   7    4    5 1
   8    4    7 1
   9    6   17 1
  10    6   18 1
  11    7    8 1
  12    7   19 1
  13    7   20 1
  14    8    9 1
  15    8   10 2
  16    8   11 1
  17    9   12 1
  18   11   14 1
  19   12   13 1
  20   12   21 1
  21   12   22 1
  22   13   23 1
  23   13   24 1
  24   13   25 1
  25   14   15 1
  26   14   26 1
  27   14   27 1
  28   15   28 1
  29   15   29 1
  30   15   30 1

#	End of record

