#	Name: ASD04590326
#	Creating user name:	WinNT
#	Creation time:	15. 06. 2019 20:50

#	Modifying user name:	WinNT
#	Modification time:	15. 06. 2019 20:50

#	Program:	/corina/corina34_cracker 3.40 0067  02.08.2006

@<TRIPOS>MOLECULE
ASD04590326
  36   39    0    0    0
SMALL
NO_CHARGES


@<TRIPOS>ATOM
   1 C1            -0.0167     1.3834     0.0096 C.ar    
   2 C2             0.0021    -0.0041     0.0020 C.ar    
   3 C3             1.1863    -0.6848    -0.0130 C.ar    
   4 C4             2.3948     0.0191    -0.0208 C.ar    
   5 C5             2.3756     1.4250    -0.0131 C.ar    
   6 C6             1.1624     2.0987     0.0022 C.ar    
   7 N7             3.6952    -0.3636    -0.0361 N.2     
   8 C8             4.4664     0.6967    -0.0382 C.2     
   9 N9             3.6970     1.8290    -0.0243 N.pl3   
  10 C10            5.9437     0.6731    -0.0529 C.2     
  11 C11            6.7565    -0.4840    -0.0673 C.2     
  12 C12            8.0504    -0.0800    -0.0786 C.2     
  13 N13            8.0626     1.2789    -0.0717 N.pl3   
  14 N14            6.7358     1.7273    -0.0606 N.2     
  15 N15            6.3043    -1.8134    -0.0692 N.am    
  16 C16            7.1922    -2.8272    -0.0837 C.2     
  17 C17            6.7170    -4.2242    -0.0856 C.ar    
  18 O18            8.3851    -2.5907    -0.0952 O.2     
  19 C19            4.9093    -5.8055    -0.0685 C.ar    
  20 C20            5.8239    -6.8482    -0.0893 C.ar    
  21 C21            7.1839    -6.5845    -0.1024 C.ar    
  22 C22            7.6364    -5.2792    -0.1007 C.ar    
  23 F23            8.9626    -5.0219    -0.1140 F       
  24 C24            5.3476    -4.4993    -0.0666 C.ar    
  25 F25            5.3867    -8.1265    -0.0910 F       
  26 H26           -0.9614     1.9069     0.0170 H       
  27 H27           -0.9290    -0.5513     0.0084 H       
  28 H28            1.1893    -1.7648    -0.0185 H       
  29 H29            1.1417     3.1785     0.0079 H       
  30 H30            4.0192     2.7439    -0.0230 H       
  31 H31            8.9175    -0.7237    -0.0907 H       
  32 H32            8.8531     1.8410    -0.0767 H       
  33 H33            5.3529    -2.0021    -0.0599 H       
  34 H34            3.8505    -6.0182    -0.0587 H       
  35 H35            7.8913    -7.4004    -0.1185 H       
  36 H36            4.6334    -3.6893    -0.0501 H       
@<TRIPOS>BOND
   1    1    2 ar
   2    1    6 ar
   3    1   26 1
   4    2    3 ar
   5    2   27 1
   6    3    4 ar
   7    3   28 1
   8    4    5 ar
   9    4    7 1
  10    5    6 ar
  11    5    9 1
  12    6   29 1
  13    7    8 2
  14    8    9 1
  15    8   10 1
  16    9   30 1
  17   10   11 1
  18   10   14 2
  19   11   12 2
  20   11   15 1
  21   12   13 1
  22   12   31 1
  23   13   14 1
  24   13   32 1
  25   15   16 am
  26   15   33 1
  27   16   17 1
  28   16   18 2
  29   17   22 ar
  30   17   24 ar
  31   19   20 ar
  32   19   24 ar
  33   19   34 1
  34   20   21 ar
  35   20   25 1
  36   21   22 ar
  37   21   35 1
  38   22   23 1
  39   24   36 1

#	End of record

