#	Name: ASD03091603
#	Creating user name:	WinNT
#	Creation time:	15. 06. 2019 20:31

#	Modifying user name:	WinNT
#	Modification time:	15. 06. 2019 20:31

#	Program:	/corina/corina34_cracker 3.40 0067  02.08.2006

@<TRIPOS>MOLECULE
ASD03091603
  40   42    0    0    0
SMALL
NO_CHARGES


@<TRIPOS>ATOM
   1 Cl1            0.0000     0.0000     0.0000 Cl      
   2 H2             0.0000     1.3700     0.0000 H       
   3 C3            13.6936    12.0150     6.5836 C.ar    
   4 C4            13.7127    10.6082     6.5758 C.ar    
   5 C5            14.9340     9.9446     6.5599 C.ar    
   6 C6            16.1091    10.6635     6.5524 C.ar    
   7 C7            16.0914    12.0538     6.5605 C.ar    
   8 C8            14.8925    12.7327     6.5760 C.ar    
   9 O9            12.4334    10.1837     6.5865 O.3     
  10 C10           11.5804    11.2291     6.6007 C.2     
  11 C11           12.2808    12.3926     6.6050 C.2     
  12 C12           10.1144    11.1244     6.6151 C.2     
  13 O13            9.4327    12.1319     6.6269 O.2     
  14 N14            9.5254     9.9121     6.6151 N.am    
  15 N15            6.8350     8.6549     8.4058 N.3     
  16 C16            7.5579     9.8895     8.0723 C.3     
  17 C17            8.0642     9.8077     6.6293 C.3     
  18 C18            7.6393     8.4607     6.0313 C.3     
  19 C19            6.1095     8.3621     6.0856 C.3     
  20 C20            5.6575     8.4833     7.5436 C.3     
  21 C21            7.7213     7.4857     8.3242 C.3     
  22 C22            8.2328     7.3358     6.8887 C.3     
  23 F23           17.2542    12.7417     6.5537 F       
  24 H24           14.9617     8.8650     6.5539 H       
  25 H25           17.0545    10.1414     6.5404 H       
  26 H26           14.8795    13.8126     6.5815 H       
  27 H27           11.8765    13.3940     6.6158 H       
  28 H28           10.0690     9.1088     6.6056 H       
  29 H29            6.8872    10.7426     8.1746 H       
  30 H30            8.4045    10.0091     8.7485 H       
  31 H31            7.6323    10.6196     6.0442 H       
  32 H32            7.9835     8.3831     5.0000 H       
  33 H33            5.6705     9.1690     5.4989 H       
  34 H34            5.7910     7.4005     5.6832 H       
  35 H35            5.1222     7.5795     7.8347 H       
  36 H36            5.0000     9.3461     7.6500 H       
  37 H37            8.5664     7.6221     8.9990 H       
  38 H38            7.1690     6.5901     8.6089 H       
  39 H39            7.9228     6.3700     6.4896 H       
  40 H40            9.3206     7.4047     6.8795 H       
@<TRIPOS>BOND
   1    1    2 1
   2    3    4 ar
   3    3    8 ar
   4    3   11 1
   5    4    5 ar
   6    4    9 1
   7    5    6 ar
   8    5   24 1
   9    6    7 ar
  10    6   25 1
  11    7    8 ar
  12    7   23 1
  13    8   26 1
  14    9   10 1
  15   10   11 2
  16   10   12 1
  17   11   27 1
  18   12   13 2
  19   12   14 am
  20   14   17 1
  21   14   28 1
  22   15   16 1
  23   15   20 1
  24   15   21 1
  25   16   17 1
  26   16   29 1
  27   16   30 1
  28   17   18 1
  29   17   31 1
  30   18   19 1
  31   18   22 1
  32   18   32 1
  33   19   20 1
  34   19   33 1
  35   19   34 1
  36   20   35 1
  37   20   36 1
  38   21   22 1
  39   21   37 1
  40   21   38 1
  41   22   39 1
  42   22   40 1

#	End of record

