#	Name: ASD05430314
#	Creating user name:	WinNT
#	Creation time:	15. 06. 2019 21:00

#	Modifying user name:	WinNT
#	Modification time:	15. 06. 2019 21:00

#	Program:	/corina/corina34_cracker 3.40 0067  02.08.2006

@<TRIPOS>MOLECULE
ASD05430314
  55   59    0    0    0
SMALL
NO_CHARGES


@<TRIPOS>ATOM
   1 N1            -0.0171     1.4120     0.0098 N.pl3   
   2 O2             0.0021    -0.0041     0.0020 O.3     
   3 C3             0.8745    -0.5091    -1.0220 C.3     
   4 C4             2.2415     0.1677    -0.9189 C.3     
   5 C5             2.1069     1.6824    -1.1128 C.3     
   6 C6             1.2119     2.2343     0.0025 C.3     
   7 O7             0.7402     3.5478    -0.3163 O.3     
   8 N8            -0.6730     3.5013    -0.2120 N.2     
   9 C9            -1.0824     2.2814    -0.0172 C.2     
  10 C10            1.9112     2.1924     1.3368 C.ar    
  11 C11            2.6674     3.2717     1.7544 C.ar    
  12 C12            1.7912     1.0771     2.1447 C.ar    
  13 C13            2.4313     1.0379     3.3689 C.ar    
  14 C14            3.1933     2.1161     3.7859 C.ar    
  15 C15            3.3088     3.2346     2.9780 C.ar    
  16 F16            3.8194     2.0789     4.9825 F       
  17 C17           -2.4869     1.8878     0.1502 C.2     
  18 C18           -3.4567     2.8200     0.1072 C.2     
  19 C19           -4.8649     2.4253     0.2750 C.ar    
  20 C20           -5.1969     1.0821     0.4793 C.ar    
  21 C21           -5.8732     3.3931     0.2363 C.ar    
  22 C22           -7.1937     3.0172     0.3949 C.ar    
  23 C23           -7.5177     1.6754     0.5930 C.ar    
  24 C24           -6.5155     0.7146     0.6367 C.ar    
  25 N25           -8.8572     1.2961     0.7541 N.pl3   
  26 C26           -9.7574     1.8532     1.6051 C.2     
  27 N27          -10.8975     1.2324     1.4690 N.2     
  28 C28          -10.7722     0.2713     0.5419 C.2     
  29 C29           -9.5081     0.2966     0.0782 C.2     
  30 O30           -8.1767     3.9556     0.3583 O.3     
  31 C31           -7.7726     5.3107     0.1523 C.3     
  32 C32          -11.8595    -0.6706     0.0929 C.3     
  33 H33            0.9930    -1.5856    -0.8984 H       
  34 H34            0.4414    -0.3034    -2.0008 H       
  35 H35            2.6689    -0.0326     0.0636 H       
  36 H36            2.9016    -0.2359    -1.6867 H       
  37 H37            3.0907     2.1484    -1.0585 H       
  38 H38            1.6548     1.8897    -2.0827 H       
  39 H39            2.7574     4.1440     1.1240 H       
  40 H40            1.1968     0.2362     1.8192 H       
  41 H41            2.3368     0.1668     4.0003 H       
  42 H42            3.9031     4.0761     3.3021 H       
  43 H43           -2.7418     0.8502     0.3079 H       
  44 H44           -3.2017     3.8575    -0.0505 H       
  45 H45           -4.4198     0.3329     0.5134 H       
  46 H46           -5.6208     4.4320     0.0832 H       
  47 H47           -6.7708    -0.3235     0.7899 H       
  48 H48           -9.5623     2.6722     2.2815 H       
  49 H49           -9.0862    -0.3508    -0.6763 H       
  50 H50           -8.6519     5.9549     0.1444 H       
  51 H51           -7.1050     5.6172     0.9576 H       
  52 H52           -7.2528     5.3938    -0.8021 H       
  53 H53          -12.3986    -0.2299    -0.7457 H       
  54 H54          -11.4155    -1.6165    -0.2175 H       
  55 H55          -12.5507    -0.8468     0.9170 H       
@<TRIPOS>BOND
   1    1    2 1
   2    1    6 1
   3    1    9 1
   4    2    3 1
   5    3    4 1
   6    3   33 1
   7    3   34 1
   8    4    5 1
   9    4   35 1
  10    4   36 1
  11    5    6 1
  12    5   37 1
  13    5   38 1
  14    6    7 1
  15    6   10 1
  16    7    8 1
  17    8    9 2
  18    9   17 1
  19   10   11 ar
  20   10   12 ar
  21   11   15 ar
  22   11   39 1
  23   12   13 ar
  24   12   40 1
  25   13   14 ar
  26   13   41 1
  27   14   15 ar
  28   14   16 1
  29   15   42 1
  30   17   18 2
  31   17   43 1
  32   18   19 1
  33   18   44 1
  34   19   20 ar
  35   19   21 ar
  36   20   24 ar
  37   20   45 1
  38   21   22 ar
  39   21   46 1
  40   22   23 ar
  41   22   30 1
  42   23   24 ar
  43   23   25 1
  44   24   47 1
  45   25   26 1
  46   25   29 1
  47   26   27 2
  48   26   48 1
  49   27   28 1
  50   28   29 2
  51   28   32 1
  52   29   49 1
  53   30   31 1
  54   31   50 1
  55   31   51 1
  56   31   52 1
  57   32   53 1
  58   32   54 1
  59   32   55 1

#	End of record

