#	Name: ASD07301055
#	Creating user name:	WinNT
#	Creation time:	15. 06. 2019 21:10

#	Modifying user name:	WinNT
#	Modification time:	15. 06. 2019 21:10

#	Program:	/corina/corina34_cracker 3.40 0067  02.08.2006

@<TRIPOS>MOLECULE
ASD07301055
  37   37    0    0    0
SMALL
NO_CHARGES


@<TRIPOS>ATOM
   1 C1            -0.0327     1.4900     0.0320 C.3     
   2 C2            -0.0151    -0.0160    -0.0212 C.2     
   3 C3             1.2579    -0.7295    -0.1291 C.2     
   4 C4             1.2750    -2.1918    -0.1808 C.2     
   5 C5             1.3121    -2.8983    -1.5114 C.3     
   6 O6            -1.0568    -0.6370     0.0253 O.2     
   7 O7             1.2592    -2.8356     0.8479 O.2     
   8 N8             2.3945    -0.0518    -0.1799 N.2     
   9 N9             3.5210    -0.6803    -0.1743 N.pl3   
  10 C10            4.7181     0.0340    -0.1216 C.ar    
  11 C11            5.9378    -0.6434    -0.1155 C.ar    
  12 C12            7.1228     0.0722    -0.0631 C.ar    
  13 C13            7.0952     1.4537    -0.0165 C.ar    
  14 C14            5.8868     2.1265    -0.0225 C.ar    
  15 C15            4.6999     1.4222    -0.0809 C.ar    
  16 O16            5.9632    -2.0015    -0.1604 O.3     
  17 C17            7.2430    -2.6300    -0.0642 C.3     
  18 C18            7.6427    -2.7504     1.4077 C.3     
  19 C19            7.1747    -4.0245    -0.6899 C.3     
  20 H20            0.9884     1.8674    -0.0216 H       
  21 H21           -0.6076     1.8766    -0.8095 H       
  22 H22           -0.4917     1.8152     0.9656 H       
  23 H23            1.2323    -2.1654    -2.3143 H       
  24 H24            2.2518    -3.4421    -1.6079 H       
  25 H25            0.4790    -3.5984    -1.5744 H       
  26 H26            3.5357    -1.6497    -0.2067 H       
  27 H27            8.0685    -0.4493    -0.0582 H       
  28 H28            8.0204     2.0094     0.0250 H       
  29 H29            5.8713     3.2057     0.0143 H       
  30 H30            3.7580     1.9506    -0.0903 H       
  31 H31            7.9831    -2.0300    -0.5938 H       
  32 H32            7.6914    -1.7569     1.8535 H       
  33 H33            6.9026    -3.3504     1.9372 H       
  34 H34            8.6189    -3.2298     1.4810 H       
  35 H35            6.8899    -3.9387    -1.7386 H       
  36 H36            8.1509    -4.5039    -0.6166 H       
  37 H37            6.4346    -4.6245    -0.1604 H       
@<TRIPOS>BOND
   1    1    2 1
   2    1   20 1
   3    1   21 1
   4    1   22 1
   5    2    3 1
   6    2    6 2
   7    3    4 1
   8    3    8 2
   9    4    5 1
  10    4    7 2
  11    5   23 1
  12    5   24 1
  13    5   25 1
  14    8    9 1
  15    9   10 1
  16    9   26 1
  17   10   11 ar
  18   10   15 ar
  19   11   12 ar
  20   11   16 1
  21   12   13 ar
  22   12   27 1
  23   13   14 ar
  24   13   28 1
  25   14   15 ar
  26   14   29 1
  27   15   30 1
  28   16   17 1
  29   17   18 1
  30   17   19 1
  31   17   31 1
  32   18   32 1
  33   18   33 1
  34   18   34 1
  35   19   35 1
  36   19   36 1
  37   19   37 1

#	End of record

