#	Name: ASD07300180
#	Creating user name:	WinNT
#	Creation time:	15. 06. 2019 21:09

#	Modifying user name:	WinNT
#	Modification time:	15. 06. 2019 21:09

#	Program:	/corina/corina34_cracker 3.40 0067  02.08.2006

@<TRIPOS>MOLECULE
ASD07300180
  47   50    0    0    0
SMALL
NO_CHARGES


@<TRIPOS>ATOM
   1 C1            -1.5901     1.4826    -1.0281 C.2     
   2 N2            -1.7102     0.1502    -1.1920 N.am    
   3 O3            -1.8843     2.2353    -1.9355 O.2     
   4 O4            -1.1493     1.9799     0.1433 O.3     
   5 C5            -2.2796    -0.3622    -2.3632 C.ar    
   6 C6            -1.8138    -1.5558    -2.8988 C.ar    
   7 C7            -2.3781    -2.0591    -4.0545 C.ar    
   8 C8            -3.4059    -1.3758    -4.6783 C.ar    
   9 C9            -3.8716    -0.1868    -4.1477 C.ar    
  10 C10           -3.3153     0.3189    -2.9891 C.ar    
  11 C11           -0.9538     3.3240     0.2088 C.ar    
  12 C12           -2.0422     4.1792     0.3016 C.ar    
  13 C13           -1.8444     5.5441     0.3682 C.ar    
  14 C14           -0.5559     6.0606     0.3423 C.ar    
  15 C15            0.5330     5.2041     0.2493 C.ar    
  16 C16            0.3341     3.8392     0.1885 C.ar    
  17 C17           -1.3868     8.3757     0.5039 C.ar    
  18 C18           -0.8664     9.6644     0.5522 C.ar    
  19 C19           -1.7074    10.7503     0.6527 C.ar    
  20 C20           -3.0775    10.5197     0.7038 C.ar    
  21 C21           -3.5372     9.2186     0.6520 C.ar    
  22 N22           -2.7045     8.2026     0.5554 N.ar    
  23 N23           -0.3543     7.4464     0.4094 N.am    
  24 C24            0.6349     9.5230     0.4745 C.3     
  25 C25            0.8569     8.0275     0.3897 C.2     
  26 O26            1.9266     7.4610     0.3133 O.2     
  27 C27            1.1762    10.2254    -0.7723 C.3     
  28 C28            1.2928    10.0844     1.7366 C.3     
  29 H29           -1.4021    -0.4535    -0.4981 H       
  30 H30           -1.0109    -2.0897    -2.4123 H       
  31 H31           -2.0161    -2.9871    -4.4717 H       
  32 H32           -3.8455    -1.7715    -5.5819 H       
  33 H33           -4.6741     0.3447    -4.6374 H       
  34 H34           -3.6828     1.2451    -2.5725 H       
  35 H35           -3.0445     3.7774     0.3215 H       
  36 H36           -2.6918     6.2098     0.4402 H       
  37 H37            1.5356     5.6053     0.2287 H       
  38 H38            1.1812     3.1726     0.1207 H       
  39 H39           -1.3128    11.7549     0.6913 H       
  40 H40           -3.7705    11.3443     0.7831 H       
  41 H41           -4.6000     9.0305     0.6915 H       
  42 H42            0.9223    11.2847    -0.7316 H       
  43 H43            2.2597    10.1128    -0.8112 H       
  44 H44            0.7324     9.7793    -1.6622 H       
  45 H45            0.9308     9.5392     2.6083 H       
  46 H46            2.3746     9.9737     1.6624 H       
  47 H47            1.0417    11.1402     1.8384 H       
@<TRIPOS>BOND
   1    1    2 am
   2    1    3 2
   3    1    4 1
   4    2    5 1
   5    2   29 1
   6    4   11 1
   7    5    6 ar
   8    5   10 ar
   9    6    7 ar
  10    6   30 1
  11    7    8 ar
  12    7   31 1
  13    8    9 ar
  14    8   32 1
  15    9   10 ar
  16    9   33 1
  17   10   34 1
  18   11   12 ar
  19   11   16 ar
  20   12   13 ar
  21   12   35 1
  22   13   14 ar
  23   13   36 1
  24   14   15 ar
  25   14   23 1
  26   15   16 ar
  27   15   37 1
  28   16   38 1
  29   17   18 ar
  30   17   22 ar
  31   17   23 1
  32   18   19 ar
  33   18   24 1
  34   19   20 ar
  35   19   39 1
  36   20   21 ar
  37   20   40 1
  38   21   22 ar
  39   21   41 1
  40   23   25 am
  41   24   25 1
  42   24   27 1
  43   24   28 1
  44   25   26 2
  45   27   42 1
  46   27   43 1
  47   27   44 1
  48   28   45 1
  49   28   46 1
  50   28   47 1

#	End of record

