#	Name: ASD01180088
#	Creating user name:	WinNT
#	Creation time:	15. 06. 2019 19:06

#	Modifying user name:	WinNT
#	Modification time:	15. 06. 2019 19:06

#	Program:	/corina/corina34_cracker 3.40 0067  02.08.2006

@<TRIPOS>MOLECULE
ASD01180088
  65   68    0    0    0
SMALL
NO_CHARGES


@<TRIPOS>ATOM
   1 F1            -7.5708   -10.2302   -10.2052 F       
   2 F2            -7.0123   -11.7217    -8.5673 F       
   3 F3            -5.6231    -9.9706    -9.0396 F       
   4 O4            -1.2361    -4.9166    -0.3279 O.2     
   5 O5            -0.1651     1.3709    -0.9612 O.3     
   6 O6             0.9331    -0.5405    -0.8065 O.2     
   7 N7            -8.2004    -6.7610    -0.8544 N.pl3   
   8 N8            -7.2936    -8.4431    -3.9358 N.ar    
   9 N9            -2.3408    -2.9963    -0.4833 N.am    
  10 N10           -8.2369    -8.5146    -6.0907 N.pl3   
  11 N11           -8.7999    -8.8265    -8.1557 N.2     
  12 C12           -8.4358    -8.4526     3.0857 C.3     
  13 C13           -7.7336    -7.2374     1.4986 C.3     
  14 C14           -9.0266    -8.0376     1.7279 C.3     
  15 C15           -7.0485    -8.2178     2.4652 C.3     
  16 C16           -7.2068    -7.3218     0.0646 C.3     
  17 C17           -8.7710    -7.4840     4.2217 C.3     
  18 C18           -8.7049    -9.9140     3.4503 C.3     
  19 C19           -5.9230    -6.5403    -0.0457 C.ar    
  20 C20           -4.7087    -7.2027    -0.0153 C.ar    
  21 C21           -5.9640    -5.1642    -0.1833 C.ar    
  22 C22           -8.2397    -7.1864    -2.1862 C.ar    
  23 C23           -3.5297    -6.4932    -0.1153 C.ar    
  24 C24           -4.7925    -4.4428    -0.2843 C.ar    
  25 C25           -3.5639    -5.1042    -0.2481 C.ar    
  26 C26           -9.2606    -6.7595    -3.0338 C.ar    
  27 C27           -7.2626    -8.0386    -2.6810 C.ar    
  28 C28           -9.2590    -7.2054    -4.3432 C.ar    
  29 C29           -2.3044    -4.3374    -0.3553 C.2     
  30 C30           -8.2472    -8.0579    -4.7674 C.ar    
  31 C31           -1.0927    -2.2365    -0.5896 C.3     
  32 C32           -7.3120    -9.3543    -6.6563 C.2     
  33 C33           -9.1449    -8.2143    -7.0560 C.2     
  34 C34           -1.4127    -0.7464    -0.7244 C.3     
  35 C35           -7.6800    -9.5324    -7.9391 C.2     
  36 C36           -6.9586   -10.3789    -8.9560 C.3     
  37 C37           -0.1289     0.0352    -0.8337 C.2     
  38 H38           -7.7803    -6.2152     1.8739 H       
  39 H39           -9.1542    -8.8691     1.0348 H       
  40 H40           -9.9169    -7.4143     1.8113 H       
  41 H41           -6.3419    -7.7400     3.1437 H       
  42 H42           -6.6354    -9.0986     1.9736 H       
  43 H43           -7.0208    -8.3643    -0.1934 H       
  44 H44           -9.8527    -7.4253     4.3419 H       
  45 H45           -8.3213    -7.8410     5.1482 H       
  46 H46           -8.3777    -6.4955     3.9843 H       
  47 H47           -8.2670   -10.5639     2.6928 H       
  48 H48           -8.2589   -10.1345     4.4201 H       
  49 H49           -9.7804   -10.0845     3.4977 H       
  50 H50           -8.8309    -6.0947    -0.5393 H       
  51 H51           -4.6836    -8.2775     0.0879 H       
  52 H52           -6.9153    -4.6535    -0.2108 H       
  53 H53           -2.5825    -7.0114    -0.0907 H       
  54 H54           -4.8258    -3.3685    -0.3909 H       
  55 H55          -10.0348    -6.0966    -2.6765 H       
  56 H56           -6.4681    -8.3746    -2.0311 H       
  57 H57          -10.0348    -6.8950    -5.0274 H       
  58 H58           -3.1933    -2.5341    -0.5051 H       
  59 H59           -0.4909    -2.3994     0.3045 H       
  60 H60           -0.5380    -2.5698    -1.4666 H       
  61 H61           -6.4529    -9.7889    -6.1669 H       
  62 H62          -10.0076    -7.5762    -6.9335 H       
  63 H63           -2.0145    -0.5834    -1.6185 H       
  64 H64           -1.9674    -0.4131     0.1527 H       
  65 H65            0.6841     1.8288    -1.0278 H       
@<TRIPOS>BOND
   1    1   36 1
   2    2   36 1
   3    3   36 1
   4    4   29 2
   5    5   37 1
   6    5   65 1
   7    6   37 2
   8    7   22 1
   9    7   50 1
  10    7   16 1
  11    8   27 ar
  12    8   30 ar
  13    9   29 am
  14    9   31 1
  15    9   58 1
  16   10   30 1
  17   10   32 1
  18   10   33 1
  19   11   33 2
  20   11   35 1
  21   12   14 1
  22   12   15 1
  23   12   17 1
  24   12   18 1
  25   13   14 1
  26   13   15 1
  27   13   16 1
  28   13   38 1
  29   14   39 1
  30   14   40 1
  31   15   41 1
  32   15   42 1
  33   16   19 1
  34   16   43 1
  35   17   44 1
  36   17   45 1
  37   17   46 1
  38   18   47 1
  39   18   48 1
  40   18   49 1
  41   19   20 ar
  42   19   21 ar
  43   20   23 ar
  44   20   51 1
  45   21   24 ar
  46   21   52 1
  47   22   26 ar
  48   22   27 ar
  49   23   25 ar
  50   23   53 1
  51   24   25 ar
  52   24   54 1
  53   25   29 1
  54   26   28 ar
  55   26   55 1
  56   27   56 1
  57   28   30 ar
  58   28   57 1
  59   31   34 1
  60   31   59 1
  61   31   60 1
  62   32   35 2
  63   32   61 1
  64   33   62 1
  65   34   37 1
  66   34   63 1
  67   34   64 1
  68   35   36 1

#	End of record

