#	Name: ASD06590029
#	Creating user name:	WinNT
#	Creation time:	15. 06. 2019 21:06

#	Modifying user name:	WinNT
#	Modification time:	15. 06. 2019 21:06

#	Program:	/corina/corina34_cracker 3.40 0067  02.08.2006

@<TRIPOS>MOLECULE
ASD06590029
 264  266    0    0    0
SMALL
NO_CHARGES


@<TRIPOS>ATOM
   1 C1            -2.0088    -4.7553    -7.2611 C.2     
   2 O2            -2.2537    -5.9375    -7.1457 O.2     
   3 N3             0.1959    -5.4845    -7.9658 N.am    
   4 C4            -0.6453    -4.3099    -7.7232 C.3     
   5 C5            -0.7831    -3.5052    -9.0172 C.3     
   6 C6             0.5839    -2.9480    -9.4193 C.3     
   7 C7             0.4710    -2.2497   -10.7760 C.3     
   8 C8             1.0549    -1.9432    -8.3661 C.3     
   9 C9            -5.2987    -3.2096    -6.8731 C.2     
  10 O10           -4.9469    -2.1901    -7.4279 O.2     
  11 N11           -2.9577    -3.8401    -6.9813 N.am    
  12 C12           -4.2851    -4.2733    -6.5378 C.3     
  13 C13           -4.2678    -4.5025    -5.0252 C.3     
  14 C14           -8.7563    -2.4699    -5.9454 C.2     
  15 O15           -8.7694    -3.3292    -5.0897 O.2     
  16 N16           -6.5960    -3.3913    -6.5564 N.am    
  17 C17           -7.5814    -2.3573    -6.8824 C.3     
  18 C18           -8.0588    -2.5442    -8.3239 C.3     
  19 C19           -6.9082    -2.3103    -9.2685 C.ar    
  20 C20           -6.0981    -3.3660    -9.6442 C.ar    
  21 C21           -5.0424    -3.1541   -10.5096 C.ar    
  22 C22           -4.7956    -1.8809   -11.0022 C.ar    
  23 O23           -3.7579    -1.6700   -11.8540 O.3     
  24 C24           -5.6101    -0.8234   -10.6241 C.ar    
  25 C25           -6.6677    -1.0415    -9.7625 C.ar    
  26 C26          -12.1590    -1.1414    -5.8047 C.2     
  27 O27          -12.0847    -0.6795    -6.9237 O.2     
  28 N28           -9.7926    -1.6157    -6.0585 N.am    
  29 C29          -10.9348    -1.7251    -5.1477 C.3     
  30 C30          -10.6340    -0.9589    -3.8580 C.3     
  31 C31           -9.4856    -1.6180    -3.1383 C.ar    
  32 C32           -8.1871    -1.2240    -3.4020 C.ar    
  33 C33           -7.1338    -1.8287    -2.7420 C.ar    
  34 C34           -7.3789    -2.8271    -1.8179 C.ar    
  35 C35           -8.6775    -3.2205    -1.5535 C.ar    
  36 C36           -9.7311    -2.6128    -2.2104 C.ar    
  37 C37          -15.4970    -0.1110    -4.7281 C.2     
  38 O38          -15.2217    -0.2476    -3.5549 O.2     
  39 N39          -13.3364    -1.1327    -5.1489 N.am    
  40 C40          -14.5265    -0.5653    -5.7877 C.3     
  41 C41          -15.1903    -1.6286    -6.6651 C.3     
  42 C42          -14.2517    -1.9995    -7.8150 C.3     
  43 C43          -14.9155    -3.0628    -8.6924 C.3     
  44 N44          -14.0168    -3.4180    -9.7935 N.pl3   
  45 C45          -14.4012    -4.3602   -10.7179 C.2     
  46 N46          -13.6016    -4.6762   -11.6976 N.2     
  47 N47          -15.6290    -4.9690   -10.6091 N.pl3   
  48 C48          -19.0113     0.8895    -4.6195 C.2     
  49 O49          -19.2002     0.5540    -5.7695 O.2     
  50 N50          -16.6709     0.4473    -5.0843 N.am    
  51 C51          -17.6143     0.8890    -4.0542 C.3     
  52 C52          -17.2476     2.3030    -3.5993 C.3     
  53 C53          -15.8805     2.2795    -2.9128 C.3     
  54 C54          -15.5138     3.6935    -2.4579 C.3     
  55 N55          -14.2048     3.6710    -1.8005 N.pl3   
  56 C56          -13.6641     4.8341    -1.3055 C.2     
  57 N57          -12.4994     4.8140    -0.7206 N.2     
  58 N58          -14.3518     6.0183    -1.4275 N.pl3   
  59 C59          -22.1952     2.3816    -3.6502 C.2     
  60 O60          -21.9544     2.5772    -2.4777 O.2     
  61 N61          -20.0507     1.2629    -3.8470 N.am    
  62 C62          -21.3924     1.3690    -4.4256 C.3     
  63 C63          -22.0865     0.0072    -4.3572 C.3     
  64 C64          -23.4307     0.0828    -5.0841 C.3     
  65 C65          -23.1920     0.3566    -6.5703 C.3     
  66 C66          -24.1730    -1.2453    -4.9229 C.3     
  67 C67          -25.3544     4.1454    -4.1713 C.2     
  68 O68          -25.5786     3.5534    -5.2058 O.2     
  69 N69          -23.1808     3.0698    -4.2596 N.am    
  70 C70          -24.0224     3.9850    -3.4849 C.3     
  71 C71          -23.3341     5.3476    -3.3825 C.3     
  72 C72          -22.0606     5.2087    -2.5889 C.2     
  73 C73          -20.8305     5.5758    -2.9959 C.2     
  74 N74          -19.9696     5.2759    -1.9748 N.pl3   
  75 C75          -20.7041     4.7356    -0.9787 C.2     
  76 N76          -21.9544     4.7033    -1.3510 N.2     
  77 C77          -28.2004     6.4251    -3.9149 C.2     
  78 O78          -27.6110     7.1647    -3.1556 O.2     
  79 N79          -26.2965     4.9466    -3.6356 N.am    
  80 C80          -27.5913     5.1025    -4.3029 C.3     
  81 C81          -28.5243     3.9669    -3.8776 C.3     
  82 O82          -28.8032     4.0777    -2.4804 O.3     
  83 C83          -31.4906     7.9963    -4.1776 C.2     
  84 O84          -31.9997     7.0443    -4.7302 O.2     
  85 N85          -29.4002     6.7861    -4.4115 N.am    
  86 C86          -29.9924     8.0719    -4.0342 C.3     
  87 C87          -29.4475     9.1719    -4.9475 C.3     
  88 C88          -27.9257     9.2443    -4.8068 C.3     
  89 O89          -29.7870     8.8765    -6.3038 O.3     
  90 C90          -34.0331     9.5622    -5.2510 C.2     
  91 O91          -33.1388     9.9770    -5.9575 O.2     
  92 N92          -32.2649     8.9867    -3.6916 N.am    
  93 C93          -33.7135     8.9573    -3.9082 C.3     
  94 C94          -34.4101     9.7607    -2.8081 C.3     
  95 C95          -34.1887     9.0755    -1.4582 C.3     
  96 C96          -34.8853     9.8789    -0.3581 C.3     
  97 N97          -34.6733     9.2228     0.9345 N.pl3   
  98 C98          -35.2097     9.7666     2.0776 C.2     
  99 N99          -35.9068    10.8659     2.0113 N.2     
 100 N100         -35.0107     9.1509     3.2906 N.pl3   
 101 C101         -35.7251    11.7277    -6.8370 C.2     
 102 O102         -35.5556    12.2501    -5.7608 O.2     
 103 N103         -35.3126     9.6422    -5.6668 N.am    
 104 C104         -35.6232    10.2302    -6.9721 C.3     
 105 C105         -36.9545     9.6722    -7.4791 C.3     
 106 C106         -36.8158     8.1929    -7.7311 C.2     
 107 O107         -35.7563     7.6395    -7.5255 O.2     
 108 N108         -37.8689     7.4849    -8.1850 N.am    
 109 O109         -36.0041    12.4811    -7.9123 O.3     
 110 C110           1.5375    -5.3795    -7.8912 C.2     
 111 O111           2.0484    -4.3127    -7.6233 O.2     
 112 C112          18.8614   -12.4551    -8.8948 C.3     
 113 C113          17.9829   -11.2284    -8.6414 C.3     
 114 C114          16.5102   -11.6169    -8.7870 C.3     
 115 C115          15.6317   -10.3902    -8.5337 C.3     
 116 C116          14.1590   -10.7788    -8.6793 C.3     
 117 C117          13.2804    -9.5520    -8.4260 C.3     
 118 C118          11.8078    -9.9406    -8.5716 C.3     
 119 C119          10.9292    -8.7138    -8.3183 C.3     
 120 C120           9.4566    -9.1024    -8.4639 C.3     
 121 C121           8.5780    -7.8757    -8.2106 C.3     
 122 C122           7.1053    -8.2642    -8.3562 C.3     
 123 C123           6.2268    -7.0375    -8.1028 C.3     
 124 C124           4.7541    -7.4260    -8.2485 C.3     
 125 C125           3.8755    -6.1993    -7.9951 C.3     
 126 C126           2.4029    -6.5878    -8.1408 C.3     
 127 H127          -0.2126    -6.3377    -8.1801 H       
 128 H128          -0.1868    -3.6870    -6.9551 H       
 129 H129          -1.1588    -4.1528    -9.8095 H       
 130 H130          -1.4794    -2.6815    -8.8604 H       
 131 H131           1.3027    -3.7644    -9.4896 H       
 132 H132          -0.2478    -1.4332   -10.7056 H       
 133 H133           1.4449    -1.8527   -11.0624 H       
 134 H134           0.1355    -2.9655   -11.5263 H       
 135 H135           0.3361    -1.1267    -8.2958 H       
 136 H136           1.1353    -2.4407    -7.3996 H       
 137 H137           2.0288    -1.5462    -8.6525 H       
 138 H138          -2.7619    -2.8945    -7.0736 H       
 139 H139          -4.5519    -5.2016    -7.0429 H       
 140 H140          -5.2554    -4.8248    -4.6952 H       
 141 H141          -3.5347    -5.2718    -4.7826 H       
 142 H142          -4.0009    -3.5742    -4.5200 H       
 143 H143          -6.8774    -4.2067    -6.1127 H       
 144 H144          -7.1245    -1.3735    -6.7756 H       
 145 H145          -8.4348    -3.5591    -8.4535 H       
 146 H146          -8.8553    -1.8316    -8.5381 H       
 147 H147          -6.2907    -4.3569    -9.2604 H       
 148 H148          -4.4095    -3.9789   -10.8022 H       
 149 H149          -3.9885    -1.7718   -12.7876 H       
 150 H150          -5.4198     0.1688   -11.0059 H       
 151 H151          -7.3048    -0.2194    -9.4713 H       
 152 H152          -9.7822    -0.9284    -6.7429 H       
 153 H153         -11.1136    -2.7745    -4.9135 H       
 154 H154         -10.3683     0.0701    -4.1002 H       
 155 H155         -11.5158    -0.9653    -3.2174 H       
 156 H156          -7.9956    -0.4440    -4.1240 H       
 157 H157          -6.1192    -1.5213    -2.9485 H       
 158 H158          -6.5559    -3.3000    -1.3027 H       
 159 H159          -8.8690    -4.0007    -0.8317 H       
 160 H160         -10.7458    -2.9176    -2.0011 H       
 161 H161         -13.3959    -1.5022    -4.2540 H       
 162 H162         -14.2371     0.2856    -6.4043 H       
 163 H163         -15.3993    -2.5150    -6.0663 H       
 164 H164         -16.1229    -1.2353    -7.0698 H       
 165 H165         -14.0427    -1.1131    -8.4138 H       
 166 H166         -13.3191    -2.3928    -7.4104 H       
 167 H167         -15.1245    -3.9492    -8.0936 H       
 168 H168         -15.8480    -2.6695    -9.0971 H       
 169 H169         -13.1504    -2.9884    -9.8702 H       
 170 H170         -13.8728    -5.3410   -12.3498 H       
 171 H171         -16.2241    -4.7338    -9.8801 H       
 172 H172         -15.9003    -5.6338   -11.2614 H       
 173 H173         -16.8911     0.5566    -6.0226 H       
 174 H174         -17.5671     0.2098    -3.2030 H       
 175 H175         -17.2082     2.9643    -4.4649 H       
 176 H176         -17.9998     2.6659    -2.8989 H       
 177 H177         -15.9200     1.6182    -2.0472 H       
 178 H178         -15.1284     1.9166    -3.6133 H       
 179 H179         -15.4744     4.3548    -3.3235 H       
 180 H180         -16.2660     4.0564    -1.7575 H       
 181 H181         -13.7196     2.8355    -1.7145 H       
 182 H182         -12.1179     5.6346    -0.3714 H       
 183 H183         -15.2185     6.0332    -1.8628 H       
 184 H184         -13.9702     6.8389    -1.0782 H       
 185 H185         -19.9104     1.4613    -2.9080 H       
 186 H186         -21.3155     1.6858    -5.4657 H       
 187 H187         -21.4578    -0.7453    -4.8331 H       
 188 H188         -22.2520    -0.2642    -3.3145 H       
 189 H189         -24.0294     0.8878    -4.6579 H       
 190 H190         -24.1504     0.4585    -7.0795 H       
 191 H191         -22.6210     1.2782    -6.6829 H       
 192 H192         -22.6346    -0.4719    -7.0075 H       
 193 H193         -24.3430    -1.4403    -3.8640 H       
 194 H194         -25.1306    -1.1915    -5.4408 H       
 195 H195         -23.5742    -2.0503    -5.3490 H       
 196 H196         -23.3330     2.9591    -5.2112 H       
 197 H197         -24.1756     3.5793    -2.4849 H       
 198 H198         -23.1010     5.7129    -4.3827 H       
 199 H199         -23.9981     6.0535    -2.8835 H       
 200 H200         -20.5727     6.0208    -3.9456 H       
 201 H201         -19.0109     5.4238    -1.9681 H       
 202 H202         -20.3209     4.3913    -0.0295 H       
 203 H203         -26.1172     5.4201    -2.8082 H       
 204 H204         -27.4495     5.0708    -5.3832 H       
 205 H205         -29.4555     4.0317    -4.4403 H       
 206 H206         -28.0449     3.0086    -4.0775 H       
 207 H207         -29.3904     3.3886    -2.1407 H       
 208 H208         -29.8717     6.1946    -5.0187 H       
 209 H209         -29.7375     8.2996    -2.9992 H       
 210 H210         -29.8846    10.1293    -4.6638 H       
 211 H211         -27.4860     8.2993    -5.1259 H       
 212 H212         -27.5413    10.0524    -5.4291 H       
 213 H213         -27.6657     9.4327    -3.7652 H       
 214 H214         -30.7382     8.8154    -6.4668 H       
 215 H215         -31.8630     9.7189    -3.1985 H       
 216 H216         -34.0640     7.9255    -3.8819 H       
 217 H217         -33.9958    10.7684    -2.7764 H       
 218 H218         -35.4784     9.8135    -3.0179 H       
 219 H219         -34.6030     8.0678    -1.4899 H       
 220 H220         -33.1204     9.0226    -1.2485 H       
 221 H221         -34.4709    10.8866    -0.3264 H       
 222 H222         -35.9536     9.9318    -0.5679 H       
 223 H223         -34.1544     8.4047     0.9838 H       
 224 H224         -36.2853    11.2496     2.8178 H       
 225 H225         -34.4919     8.3328     3.3399 H       
 226 H226         -35.3891     9.5346     4.0971 H       
 227 H227         -36.0278     9.3104    -5.1017 H       
 228 H228         -34.8322     9.9822    -7.6799 H       
 229 H229         -37.7284     9.8422    -6.7306 H       
 230 H230         -37.2295    10.1745    -8.4066 H       
 231 H231         -38.7162     7.9275    -8.3495 H       
 232 H232         -37.7796     6.5327    -8.3472 H       
 233 H233         -36.0592    13.4369    -7.7763 H       
 234 H234          19.9106   -12.1783    -8.7910 H       
 235 H235          18.6175   -13.2325    -8.1707 H       
 236 H236          18.6822   -12.8285    -9.9030 H       
 237 H237          18.1622   -10.8551    -7.6332 H       
 238 H238          18.2268   -10.4510    -9.3654 H       
 239 H239          16.3309   -11.9903    -9.7953 H       
 240 H240          16.2662   -12.3943    -8.0630 H       
 241 H241          15.8109   -10.0169    -7.5254 H       
 242 H242          15.8756    -9.6128    -9.2577 H       
 243 H243          13.9797   -11.1521    -9.6876 H       
 244 H244          13.9150   -11.5562    -7.9553 H       
 245 H245          13.4597    -9.1787    -7.4177 H       
 246 H246          13.5244    -8.7746    -9.1500 H       
 247 H247          11.6285   -10.3139    -9.5799 H       
 248 H248          11.5638   -10.7180    -7.8476 H       
 249 H249          11.1085    -8.3405    -7.3100 H       
 250 H250          11.1732    -7.9364    -9.0423 H       
 251 H251           9.2773    -9.4757    -9.4722 H       
 252 H252           9.2126    -9.8798    -7.7399 H       
 253 H253           8.7573    -7.5023    -7.2023 H       
 254 H254           8.8220    -7.0982    -8.9346 H       
 255 H255           6.9261    -8.6375    -9.3644 H       
 256 H256           6.8614    -9.0416    -7.6322 H       
 257 H257           6.4060    -6.6641    -7.0946 H       
 258 H258           6.4707    -6.2601    -8.8269 H       
 259 H259           4.5748    -7.7993    -9.2567 H       
 260 H260           4.5101    -8.2034    -7.5244 H       
 261 H261           4.0548    -5.8260    -6.9869 H       
 262 H262           4.1195    -5.4219    -8.7192 H       
 263 H263           2.1589    -7.3652    -7.4167 H       
 264 H264           2.2236    -6.9612    -9.1490 H       
@<TRIPOS>BOND
   1    1    2 2
   2    1    4 1
   3    1   11 am
   4    3  110 am
   5    3    4 1
   6    3  127 1
   7    4    5 1
   8    4  128 1
   9    5    6 1
  10    5  129 1
  11    5  130 1
  12    6    7 1
  13    6    8 1
  14    6  131 1
  15    7  132 1
  16    7  133 1
  17    7  134 1
  18    8  135 1
  19    8  136 1
  20    8  137 1
  21    9   10 2
  22    9   12 1
  23    9   16 am
  24   11   12 1
  25   11  138 1
  26   12   13 1
  27   12  139 1
  28   13  140 1
  29   13  141 1
  30   13  142 1
  31   14   15 2
  32   14   17 1
  33   14   28 am
  34   16   17 1
  35   16  143 1
  36   17   18 1
  37   17  144 1
  38   18   19 1
  39   18  145 1
  40   18  146 1
  41   19   20 ar
  42   19   25 ar
  43   20   21 ar
  44   20  147 1
  45   21   22 ar
  46   21  148 1
  47   22   23 1
  48   22   24 ar
  49   23  149 1
  50   24   25 ar
  51   24  150 1
  52   25  151 1
  53   26   27 2
  54   26   29 1
  55   26   39 am
  56   28   29 1
  57   28  152 1
  58   29   30 1
  59   29  153 1
  60   30   31 1
  61   30  154 1
  62   30  155 1
  63   31   32 ar
  64   31   36 ar
  65   32   33 ar
  66   32  156 1
  67   33   34 ar
  68   33  157 1
  69   34   35 ar
  70   34  158 1
  71   35   36 ar
  72   35  159 1
  73   36  160 1
  74   37   38 2
  75   37   40 1
  76   37   50 am
  77   39   40 1
  78   39  161 1
  79   40   41 1
  80   40  162 1
  81   41   42 1
  82   41  163 1
  83   41  164 1
  84   42   43 1
  85   42  165 1
  86   42  166 1
  87   43   44 1
  88   43  167 1
  89   43  168 1
  90   44   45 1
  91   44  169 1
  92   45   46 2
  93   45   47 1
  94   46  170 1
  95   47  171 1
  96   47  172 1
  97   48   49 2
  98   48   51 1
  99   48   61 am
 100   50   51 1
 101   50  173 1
 102   51   52 1
 103   51  174 1
 104   52   53 1
 105   52  175 1
 106   52  176 1
 107   53   54 1
 108   53  177 1
 109   53  178 1
 110   54   55 1
 111   54  179 1
 112   54  180 1
 113   55   56 1
 114   55  181 1
 115   56   57 2
 116   56   58 1
 117   57  182 1
 118   58  183 1
 119   58  184 1
 120   59   60 2
 121   59   62 1
 122   59   69 am
 123   61   62 1
 124   61  185 1
 125   62   63 1
 126   62  186 1
 127   63   64 1
 128   63  187 1
 129   63  188 1
 130   64   65 1
 131   64   66 1
 132   64  189 1
 133   65  190 1
 134   65  191 1
 135   65  192 1
 136   66  193 1
 137   66  194 1
 138   66  195 1
 139   67   68 2
 140   67   70 1
 141   67   79 am
 142   69   70 1
 143   69  196 1
 144   70   71 1
 145   70  197 1
 146   71   72 1
 147   71  198 1
 148   71  199 1
 149   72   73 2
 150   72   76 1
 151   73   74 1
 152   73  200 1
 153   74   75 1
 154   74  201 1
 155   75   76 2
 156   75  202 1
 157   77   78 2
 158   77   80 1
 159   77   85 am
 160   79   80 1
 161   79  203 1
 162   80   81 1
 163   80  204 1
 164   81   82 1
 165   81  205 1
 166   81  206 1
 167   82  207 1
 168   83   84 2
 169   83   86 1
 170   83   92 am
 171   85   86 1
 172   85  208 1
 173   86   87 1
 174   86  209 1
 175   87   88 1
 176   87   89 1
 177   87  210 1
 178   88  211 1
 179   88  212 1
 180   88  213 1
 181   89  214 1
 182   90   91 2
 183   90   93 1
 184   90  103 am
 185   92   93 1
 186   92  215 1
 187   93   94 1
 188   93  216 1
 189   94   95 1
 190   94  217 1
 191   94  218 1
 192   95   96 1
 193   95  219 1
 194   95  220 1
 195   96   97 1
 196   96  221 1
 197   96  222 1
 198   97   98 1
 199   97  223 1
 200   98   99 2
 201   98  100 1
 202   99  224 1
 203  100  225 1
 204  100  226 1
 205  101  102 2
 206  101  104 1
 207  101  109 1
 208  103  104 1
 209  103  227 1
 210  104  105 1
 211  104  228 1
 212  105  106 1
 213  105  229 1
 214  105  230 1
 215  106  107 2
 216  106  108 am
 217  108  231 1
 218  108  232 1
 219  109  233 1
 220  110  111 2
 221  110  126 1
 222  112  113 1
 223  112  234 1
 224  112  235 1
 225  112  236 1
 226  113  114 1
 227  113  237 1
 228  113  238 1
 229  114  115 1
 230  114  239 1
 231  114  240 1
 232  115  116 1
 233  115  241 1
 234  115  242 1
 235  116  117 1
 236  116  243 1
 237  116  244 1
 238  117  118 1
 239  117  245 1
 240  117  246 1
 241  118  119 1
 242  118  247 1
 243  118  248 1
 244  119  120 1
 245  119  249 1
 246  119  250 1
 247  120  121 1
 248  120  251 1
 249  120  252 1
 250  121  122 1
 251  121  253 1
 252  121  254 1
 253  122  123 1
 254  122  255 1
 255  122  256 1
 256  123  124 1
 257  123  257 1
 258  123  258 1
 259  124  125 1
 260  124  259 1
 261  124  260 1
 262  125  126 1
 263  125  261 1
 264  125  262 1
 265  126  263 1
 266  126  264 1

#	End of record

