#	Name: ASD02039291
#	Creating user name:	WinNT
#	Creation time:	15. 06. 2019 20:18

#	Modifying user name:	WinNT
#	Modification time:	15. 06. 2019 20:18

#	Program:	/corina/corina34_cracker 3.40 0067  02.08.2006

@<TRIPOS>MOLECULE
ASD02039291
  51   53    0    0    0
SMALL
NO_CHARGES


@<TRIPOS>ATOM
   1 C1             0.1354     1.1845    -0.3175 C.ar    
   2 C2             0.5168    -0.0936     0.0485 C.ar    
   3 C3            -0.3878    -1.1376    -0.0195 C.ar    
   4 C4            -1.6796    -0.9081    -0.4544 C.ar    
   5 C5            -2.0689     0.3801    -0.8248 C.ar    
   6 C6            -1.1535     1.4272    -0.7485 C.ar    
   7 C7            -3.4536     0.6340    -1.2930 C.ar    
   8 C8            -4.0253    -0.1689    -2.2861 C.ar    
   9 C9             1.1275     2.3162    -0.2398 C.3     
  10 N10            1.9438     2.3343    -1.4562 N.am    
  11 C11            1.4506     3.0089    -2.6594 C.3     
  12 C12            3.1486     1.7303    -1.4682 C.2     
  13 C13            3.5999     0.9633    -0.2941 C.2     
  14 C14            4.7326     0.2076    -0.2113 C.2     
  15 C15            2.4338     4.1080    -3.0672 C.3     
  16 N16            2.9674     0.8846     0.9045 N.2     
  17 C17            3.6599     0.1179     1.6964 C.2     
  18 N18            4.7628    -0.3199     1.0351 N.pl3   
  19 O19            3.8633     1.8184    -2.4484 O.2     
  20 C20            5.7986    -1.2048     1.5739 C.3     
  21 F21           -2.5630    -1.9281    -0.5211 F       
  22 C22            1.3205     1.9935    -3.7964 C.3     
  23 C23           -4.2046     1.6707    -0.7467 C.ar    
  24 N24           -5.4355     1.8991    -1.1593 N.ar    
  25 C25           -6.0030     1.1618    -2.0996 C.ar    
  26 C26           -5.3178     0.1058    -2.6893 C.ar    
  27 O27           -7.2728     1.4368    -2.4902 O.3     
  28 C28           -7.9278     2.5304    -1.8444 C.3     
  29 H29            1.5254    -0.2772     0.3885 H       
  30 H30           -0.0843    -2.1336     0.2673 H       
  31 H31           -1.4492     2.4260    -1.0338 H       
  32 H32           -3.4696    -0.9833    -2.7270 H       
  33 H33            0.5934     3.2618    -0.1466 H       
  34 H34            1.7717     2.1756     0.6281 H       
  35 H35            0.4758     3.4514    -2.4541 H       
  36 H36            5.4649     0.0583    -0.9910 H       
  37 H37            3.4244     3.6754    -3.2077 H       
  38 H38            2.1016     4.5653    -3.9992 H       
  39 H39            2.4760     4.8662    -2.2852 H       
  40 H40            3.4010    -0.1279     2.7157 H       
  41 H41            5.5304    -2.2421     1.3738 H       
  42 H42            6.7531    -0.9782     1.0988 H       
  43 H43            5.8831    -1.0523     2.6499 H       
  44 H44            0.5860     1.2354    -3.5243 H       
  45 H45            0.9972     2.5035    -4.7038 H       
  46 H46            2.2857     1.5180    -3.9711 H       
  47 H47           -3.7746     2.2941     0.0234 H       
  48 H48           -5.7891    -0.4907    -3.4564 H       
  49 H49           -8.9338     2.6415    -2.2489 H       
  50 H50           -7.9861     2.3376    -0.7732 H       
  51 H51           -7.3629     3.4462    -2.0185 H       
@<TRIPOS>BOND
   1    1    2 ar
   2    1    9 1
   3    1    6 ar
   4    2    3 ar
   5    2   29 1
   6    3    4 ar
   7    3   30 1
   8    4    5 ar
   9    4   21 1
  10    5    6 ar
  11    5    7 1
  12    6   31 1
  13    7   23 ar
  14    7    8 ar
  15    8   26 ar
  16    8   32 1
  17    9   10 1
  18    9   33 1
  19    9   34 1
  20   10   11 1
  21   10   12 am
  22   11   22 1
  23   11   15 1
  24   11   35 1
  25   12   13 1
  26   12   19 2
  27   13   14 2
  28   13   16 1
  29   14   18 1
  30   14   36 1
  31   15   37 1
  32   15   38 1
  33   15   39 1
  34   16   17 2
  35   17   18 1
  36   17   40 1
  37   18   20 1
  38   20   41 1
  39   20   42 1
  40   20   43 1
  41   22   44 1
  42   22   45 1
  43   22   46 1
  44   23   24 ar
  45   23   47 1
  46   24   25 ar
  47   25   26 ar
  48   25   27 1
  49   26   48 1
  50   27   28 1
  51   28   49 1
  52   28   50 1
  53   28   51 1

#	End of record

