#	Name: ASD09530011
#	Creating user name:	WinNT
#	Creation time:	15. 06. 2019 21:22

#	Modifying user name:	WinNT
#	Modification time:	15. 06. 2019 21:22

#	Program:	/corina/corina34_cracker 3.40 0067  02.08.2006

@<TRIPOS>MOLECULE
ASD09530011
  46   48    0    0    0
SMALL
NO_CHARGES


@<TRIPOS>ATOM
   1 N1            -0.0688     2.3228    -1.7813 N.am    
   2 C2            -0.2103     1.0996    -1.2686 C.2     
   3 C3             0.9257     0.3355    -0.6451 C.3     
   4 N4             2.1906     1.0080    -0.9768 N.am    
   5 C5             2.2169     2.4779    -0.8901 C.3     
   6 C6             1.1982     3.0334    -1.8872 C.3     
   7 O7            -1.3054     0.5797    -1.3065 O.2     
   8 C8             0.7469     0.3005     0.8741 C.3     
   9 C9             3.2817     0.3076    -1.3448 C.2     
  10 C10            4.5625     1.0283    -1.6782 C.3     
  11 C11            5.6366     0.0083    -2.0616 C.3     
  12 O12            3.2327    -0.9025    -1.4077 O.2     
  13 C13            6.8788     0.7325    -2.5127 C.ar    
  14 C14            7.4351     1.7141    -1.7140 C.ar    
  15 C15            8.5746     2.3784    -2.1278 C.ar    
  16 C16            9.1580     2.0608    -3.3401 C.ar    
  17 C17            8.6022     1.0785    -4.1384 C.ar    
  18 C18            7.4653     0.4112    -3.7226 C.ar    
  19 C19            5.9620    -0.8514    -0.8675 C.ar    
  20 C20            5.9340    -2.2290    -0.9793 C.ar    
  21 C21            6.2325    -3.0176     0.1160 C.ar    
  22 C22            6.5594    -2.4287     1.3232 C.ar    
  23 C23            6.5883    -1.0512     1.4348 C.ar    
  24 C24            6.2941    -0.2625     0.3383 C.ar    
  25 H25           -0.8649     2.7688    -2.1102 H       
  26 H26            0.9395    -0.6818    -1.0363 H       
  27 H27            1.9519     2.7916     0.1196 H       
  28 H28            3.2130     2.8433    -1.1398 H       
  29 H29            1.5886     2.9218    -2.8987 H       
  30 H30            1.0346     4.0912    -1.6813 H       
  31 H31           -0.1960    -0.1888     1.1178 H       
  32 H32            1.5707    -0.2534     1.3242 H       
  33 H33            0.7388     1.3190     1.2625 H       
  34 H34            4.3909     1.7066    -2.5139 H       
  35 H35            4.8955     1.5977    -0.8105 H       
  36 H36            5.2679    -0.6203    -2.8722 H       
  37 H37            6.9793     1.9622    -0.7669 H       
  38 H38            9.0088     3.1458    -1.5042 H       
  39 H39           10.0478     2.5803    -3.6637 H       
  40 H40            9.0579     0.8306    -5.0857 H       
  41 H41            7.0331    -0.3587    -4.3446 H       
  42 H42            5.6786    -2.6891    -1.9225 H       
  43 H43            6.2099    -4.0938     0.0288 H       
  44 H44            6.7919    -3.0448     2.1792 H       
  45 H45            6.8434    -0.5911     2.3780 H       
  46 H46            6.3202     0.8137     0.4245 H       
@<TRIPOS>BOND
   1    1    2 am
   2    1    6 1
   3    1   25 1
   4    2    3 1
   5    2    7 2
   6    3    4 1
   7    3    8 1
   8    3   26 1
   9    4    5 1
  10    4    9 am
  11    5    6 1
  12    5   27 1
  13    5   28 1
  14    6   29 1
  15    6   30 1
  16    8   31 1
  17    8   32 1
  18    8   33 1
  19    9   10 1
  20    9   12 2
  21   10   11 1
  22   10   34 1
  23   10   35 1
  24   11   13 1
  25   11   19 1
  26   11   36 1
  27   13   14 ar
  28   13   18 ar
  29   14   15 ar
  30   14   37 1
  31   15   16 ar
  32   15   38 1
  33   16   17 ar
  34   16   39 1
  35   17   18 ar
  36   17   40 1
  37   18   41 1
  38   19   20 ar
  39   19   24 ar
  40   20   21 ar
  41   20   42 1
  42   21   22 ar
  43   21   43 1
  44   22   23 ar
  45   22   44 1
  46   23   24 ar
  47   23   45 1
  48   24   46 1

#	End of record

