#	Name: ASD04910160
#	Creating user name:	WinNT
#	Creation time:	15. 06. 2019 20:55

#	Modifying user name:	WinNT
#	Modification time:	15. 06. 2019 20:55

#	Program:	/corina/corina34_cracker 3.40 0067  02.08.2006

@<TRIPOS>MOLECULE
ASD04910160
  67   69    0    0    0
SMALL
NO_CHARGES


@<TRIPOS>ATOM
   1 C1             0.6596     2.1813    -1.9135 C.2     
   2 C2             0.7302     0.6909    -1.7016 C.3     
   3 C3             2.1449     0.1980    -2.0124 C.3     
   4 O4             1.6402     2.7870    -2.2760 O.2     
   5 O5            -0.4940     2.8350    -1.7050 O.3     
   6 C6             3.3704    -1.9080    -2.0211 C.2     
   7 C7             3.4396    -3.3701    -1.8131 C.ar    
   8 C8             4.6362    -4.0537    -2.0347 C.ar    
   9 C9             4.6942    -5.4180    -1.8383 C.ar    
  10 C10            3.5694    -6.1086    -1.4232 C.ar    
  11 C11            2.3802    -5.4370    -1.2018 C.ar    
  12 C12            2.3102    -4.0720    -1.3889 C.ar    
  13 O13            4.3569    -1.2986    -2.3857 O.2     
  14 N14            2.2135    -1.2508    -1.8063 N.am    
  15 C15            3.6399    -7.5991    -1.2117 C.3     
  16 C16            3.7935    -7.8956     0.2814 C.3     
  17 C17            3.9900    -9.3992     0.4852 C.3     
  18 C18            4.1436    -9.6957     1.9783 C.3     
  19 O19            2.4408    -8.2062    -1.6970 O.3     
  20 C20            2.5509    -9.4540    -2.2252 C.ar    
  21 C21            3.7972   -10.0540    -2.3328 C.ar    
  22 C22            3.9095   -11.3215    -2.8687 C.ar    
  23 C23            2.7750   -11.9955    -3.3000 C.ar    
  24 C24            1.5281   -11.3947    -3.1922 C.ar    
  25 C25            1.4162   -10.1293    -2.6512 C.ar    
  26 N26            2.8886   -13.2832    -3.8451 N.pl3   
  27 N27            3.6777   -14.3252    -3.3410 N.2     
  28 C28            3.5230   -15.3679    -4.1170 C.2     
  29 C29            2.6316   -15.0247    -5.1391 C.2     
  30 C30            2.2514   -13.7401    -4.9465 C.2     
  31 C31            1.2931   -12.9581    -5.8074 C.3     
  32 C32           -0.1442   -13.3321    -5.4400 C.3     
  33 C33            4.1905   -16.7074    -3.9401 C.3     
  34 C34            5.7070   -16.5164    -3.8718 C.3     
  35 H35            0.4842     0.4593    -0.6653 H       
  36 H36            0.0194     0.1958    -2.3631 H       
  37 H37            2.3909     0.4297    -3.0487 H       
  38 H38            2.8557     0.6931    -1.3508 H       
  39 H39           -0.4904     3.7904    -1.8540 H       
  40 H40            5.5147    -3.5158    -2.3594 H       
  41 H41            5.6194    -5.9481    -2.0093 H       
  42 H42            1.5059    -5.9820    -0.8779 H       
  43 H43            1.3825    -3.5482    -1.2115 H       
  44 H44            1.4263    -1.7371    -1.5154 H       
  45 H45            4.4960    -8.0027    -1.7523 H       
  46 H46            4.6591    -7.3599     0.6710 H       
  47 H47            2.8973    -7.5713     0.8103 H       
  48 H48            3.1243    -9.9348     0.0955 H       
  49 H49            4.8862    -9.7234    -0.0437 H       
  50 H50            5.0093    -9.1601     2.3679 H       
  51 H51            3.2474    -9.3714     2.5072 H       
  52 H52            4.2836   -10.7669     2.1234 H       
  53 H53            4.6797    -9.5294    -1.9975 H       
  54 H54            4.8797   -11.7883    -2.9527 H       
  55 H55            0.6452   -11.9186    -3.5276 H       
  56 H56            0.4458    -9.6636    -2.5632 H       
  57 H57            2.3014   -15.6720    -5.9381 H       
  58 H58            1.4444   -11.8913    -5.6428 H       
  59 H59            1.4727   -13.1929    -6.8566 H       
  60 H60           -0.2846   -14.4054    -5.5687 H       
  61 H61           -0.3355   -13.0627    -4.4013 H       
  62 H62           -0.8365   -12.7948    -6.0881 H       
  63 H63            3.8405   -17.1686    -3.0166 H       
  64 H64            3.9430   -17.3510    -4.7842 H       
  65 H65            6.1898   -17.4852    -3.7439 H       
  66 H66            6.0570   -16.0552    -4.7953 H       
  67 H67            5.9545   -15.8728    -3.0277 H       
@<TRIPOS>BOND
   1    1    2 1
   2    1    4 2
   3    1    5 1
   4    2    3 1
   5    2   35 1
   6    2   36 1
   7    3   14 1
   8    3   37 1
   9    3   38 1
  10    5   39 1
  11    6    7 1
  12    6   13 2
  13    6   14 am
  14    7    8 ar
  15    7   12 ar
  16    8    9 ar
  17    8   40 1
  18    9   10 ar
  19    9   41 1
  20   10   11 ar
  21   10   15 1
  22   11   12 ar
  23   11   42 1
  24   12   43 1
  25   14   44 1
  26   15   16 1
  27   15   19 1
  28   15   45 1
  29   16   17 1
  30   16   46 1
  31   16   47 1
  32   17   18 1
  33   17   48 1
  34   17   49 1
  35   18   50 1
  36   18   51 1
  37   18   52 1
  38   19   20 1
  39   20   21 ar
  40   20   25 ar
  41   21   22 ar
  42   21   53 1
  43   22   23 ar
  44   22   54 1
  45   23   24 ar
  46   23   26 1
  47   24   25 ar
  48   24   55 1
  49   25   56 1
  50   26   27 1
  51   26   30 1
  52   27   28 2
  53   28   29 1
  54   28   33 1
  55   29   30 2
  56   29   57 1
  57   30   31 1
  58   31   32 1
  59   31   58 1
  60   31   59 1
  61   32   60 1
  62   32   61 1
  63   32   62 1
  64   33   34 1
  65   33   63 1
  66   33   64 1
  67   34   65 1
  68   34   66 1
  69   34   67 1

#	End of record

