#	Name: ASD04882142
#	Creating user name:	WinNT
#	Creation time:	15. 06. 2019 20:54

#	Modifying user name:	WinNT
#	Modification time:	15. 06. 2019 20:54

#	Program:	/corina/corina34_cracker 3.40 0067  02.08.2006

@<TRIPOS>MOLECULE
ASD04882142
  77   82    0    0    0
SMALL
NO_CHARGES


@<TRIPOS>ATOM
   1 C1             0.0208     1.4730     0.0368 C.2     
   2 C2             0.0241    -0.0023     0.0333 C.ar    
   3 C3             1.2341    -0.6994    -0.0332 C.ar    
   4 C4             1.2327    -2.0807    -0.0363 C.ar    
   5 C5             0.0229    -2.7774     0.0270 C.ar    
   6 C6            -1.1791    -2.0822     0.0931 C.ar    
   7 C7            -1.1819    -0.7048     0.1022 C.ar    
   8 O8             1.0710     2.0834    -0.0182 O.2     
   9 N9            -1.1465     2.1441     0.0953 N.am    
  10 N10            0.0214    -4.1696     0.0235 N.3     
  11 C11           -0.6389    -4.6924    -1.1807 C.3     
  12 C12           -0.5495    -6.2203    -1.1857 C.3     
  13 N13           -1.1826    -6.7494     0.0304 N.3     
  14 C14           -0.5223    -6.2265     1.2346 C.3     
  15 C15           -0.6117    -4.6986     1.2396 C.3     
  16 C16           -1.1841    -8.1462     0.0268 C.ar    
  17 C17           -1.9444    -8.8392    -0.9069 C.ar    
  18 C18           -1.1866   -10.9132     0.0194 C.ar    
  19 C19           -0.4209    -8.8453     0.9530 C.ar    
  20 C20           -1.9432   -10.2200    -0.9079 C.ar    
  21 C21           -0.4243   -10.2266     0.9464 C.ar    
  22 C22           -2.7699    -8.0848    -1.9171 C.3     
  23 C23           -1.1498     3.6091     0.0988 C.3     
  24 C24           -2.5918     4.1157     0.1704 C.3     
  25 C25           -2.5952     5.6457     0.1740 C.3     
  26 N26           -3.9759     6.1307     0.2426 N.am    
  27 C27           -4.6364     6.3798     1.3865 C.2     
  28 C28           -6.0398     6.8564     1.0838 C.3     
  29 C29           -6.2639     6.4613    -0.3943 C.3     
  30 C30           -4.8135     6.4131    -0.9290 C.3     
  31 O31           -4.1745     6.2420     2.4994 O.2     
  32 C32            3.2093    -3.0880     0.9616 C.2     
  33 N33            2.4457    -2.7842    -0.1034 N.am    
  34 C34            2.9972    -3.2436    -1.2412 C.2     
  35 C35            4.2641    -3.9281    -0.9077 C.ar    
  36 C36            5.2366    -4.5795    -1.6492 C.ar    
  37 C37            6.3358    -5.1296    -1.0084 C.ar    
  38 C38            6.4678    -5.0331     0.3641 C.ar    
  39 C39            5.5026    -4.3848     1.1190 C.ar    
  40 C40            4.3989    -3.8292     0.4921 C.ar    
  41 O41            2.5317    -3.1174    -2.3559 O.2     
  42 O42            2.9648    -2.7975     2.1152 O.2     
  43 H43            2.1679    -0.1591    -0.0824 H       
  44 H44           -2.1125    -2.6233     0.1420 H       
  45 H45           -2.1170    -0.1674     0.1581 H       
  46 H46           -1.9845     1.6571     0.1352 H       
  47 H47           -1.6860    -4.3894    -1.1819 H       
  48 H48           -0.1444    -4.2963    -2.0677 H       
  49 H49           -1.0639    -6.6119    -2.0633 H       
  50 H50            0.4972    -6.5232    -1.2120 H       
  51 H51           -1.0168    -6.6226     2.1216 H       
  52 H52            0.5248    -6.5295     1.2358 H       
  53 H53           -0.0973    -4.3071     2.1172 H       
  54 H54           -1.6584    -4.3957     1.2659 H       
  55 H55           -1.1877   -11.9932     0.0167 H       
  56 H56            0.1747    -8.3096     1.6773 H       
  57 H57           -2.5340   -10.7594    -1.6335 H       
  58 H58            0.1654   -10.7709     1.6692 H       
  59 H59           -2.2036    -7.9783    -2.8423 H       
  60 H60           -3.6909    -8.6329    -2.1158 H       
  61 H61           -3.0123    -7.0976    -1.5237 H       
  62 H62           -0.5940     3.9716     0.9635 H       
  63 H63           -0.6809     3.9756    -0.8143 H       
  64 H64           -3.1476     3.7531    -0.6943 H       
  65 H65           -3.0607     3.7491     1.0835 H       
  66 H66           -2.0394     6.0082     1.0387 H       
  67 H67           -2.1262     6.0122    -0.7391 H       
  68 H68           -6.7610     6.3522     1.7270 H       
  69 H69           -6.1099     7.9374     1.2045 H       
  70 H70           -6.7440     5.4855    -0.4687 H       
  71 H71           -6.8447     7.2210    -0.9174 H       
  72 H72           -4.5381     7.3724    -1.3672 H       
  73 H73           -4.7109     5.6172    -1.6667 H       
  74 H74            5.1384    -4.6586    -2.7218 H       
  75 H75            7.0943    -5.6375    -1.5856 H       
  76 H76            7.3286    -5.4661     0.8519 H       
  77 H77            5.6109    -4.3123     2.1911 H       
@<TRIPOS>BOND
   1    1    2 1
   2    1    8 2
   3    1    9 am
   4    2    3 ar
   5    2    7 ar
   6    3    4 ar
   7    3   43 1
   8    4    5 ar
   9    4   33 1
  10    5    6 ar
  11    5   10 1
  12    6    7 ar
  13    6   44 1
  14    7   45 1
  15    9   23 1
  16    9   46 1
  17   10   11 1
  18   10   15 1
  19   11   12 1
  20   11   47 1
  21   11   48 1
  22   12   13 1
  23   12   49 1
  24   12   50 1
  25   13   14 1
  26   13   16 1
  27   14   15 1
  28   14   51 1
  29   14   52 1
  30   15   53 1
  31   15   54 1
  32   16   17 ar
  33   16   19 ar
  34   17   20 ar
  35   17   22 1
  36   18   20 ar
  37   18   21 ar
  38   18   55 1
  39   19   21 ar
  40   19   56 1
  41   20   57 1
  42   21   58 1
  43   22   59 1
  44   22   60 1
  45   22   61 1
  46   23   24 1
  47   23   62 1
  48   23   63 1
  49   24   25 1
  50   24   64 1
  51   24   65 1
  52   25   26 1
  53   25   66 1
  54   25   67 1
  55   26   27 am
  56   26   30 1
  57   27   28 1
  58   27   31 2
  59   28   29 1
  60   28   68 1
  61   28   69 1
  62   29   30 1
  63   29   70 1
  64   29   71 1
  65   30   72 1
  66   30   73 1
  67   32   33 am
  68   32   40 1
  69   32   42 2
  70   33   34 am
  71   34   35 1
  72   34   41 2
  73   35   36 ar
  74   35   40 ar
  75   36   37 ar
  76   36   74 1
  77   37   38 ar
  78   37   75 1
  79   38   39 ar
  80   38   76 1
  81   39   40 ar
  82   39   77 1

#	End of record

