#	Name: ASD00170185
#	Creating user name:	WinNT
#	Creation time:	15. 06. 2019 18:31

#	Modifying user name:	WinNT
#	Modification time:	15. 06. 2019 18:31

#	Program:	/corina/corina34_cracker 3.40 0067  02.08.2006

@<TRIPOS>MOLECULE
ASD00170185
  43   46    0    0    0
SMALL
NO_CHARGES


@<TRIPOS>ATOM
   1 C1            -1.0341     1.5105    -0.9726 C.2     
   2 C2            -1.2784     0.2197    -1.2200 C.2     
   3 C3            -1.3312    -0.5772    -0.0064 C.2     
   4 C4            -1.1204     0.1571     1.1327 C.2     
   5 S5            -0.8664     1.7967     0.7517 S.3     
   6 C6            -0.9244     2.5800    -2.0427 C.3     
   7 C7            -0.7190     1.9003    -3.3991 C.3     
   8 C8            -1.7794     0.8094    -3.5766 C.3     
   9 C9            -1.4777    -0.3446    -2.6177 C.3     
  10 N10           -1.1201    -0.3609     2.4120 N.pl3   
  11 C11           -1.5844    -2.0180     0.0001 C.2     
  12 C12           -2.9679    -2.5247     0.1181 C.ar    
  13 O13           -0.6553    -2.7999    -0.0918 O.2     
  14 C14           -3.2229    -3.8937     0.0054 C.ar    
  15 C15           -4.5117    -4.3646     0.1154 C.ar    
  16 C16           -5.5631    -3.4753     0.3394 C.ar    
  17 C17           -5.3096    -2.1081     0.4521 C.ar    
  18 C18           -4.0207    -1.6357     0.3482 C.ar    
  19 C19           -6.9510    -3.9836     0.4572 C.ar    
  20 C20           -8.0039    -3.0978     0.6811 C.ar    
  21 C21           -9.2936    -3.5766     0.7894 C.ar    
  22 C22           -9.5426    -4.9326     0.6768 C.ar    
  23 C23           -8.5017    -5.8164     0.4552 C.ar    
  24 C24           -7.2087    -5.3485     0.3389 C.ar    
  25 H25           -1.8405     3.1703    -2.0648 H       
  26 H26           -0.0749     3.2278    -1.8263 H       
  27 H27           -0.8180     2.6380    -4.1954 H       
  28 H28            0.2742     1.4529    -3.4361 H       
  29 H29           -2.7646     1.2195    -3.3549 H       
  30 H30           -1.7583     0.4446    -4.6036 H       
  31 H31           -0.5709    -0.8579    -2.9376 H       
  32 H32           -2.3137    -1.0440    -2.6133 H       
  33 H33           -1.3508    -1.2916     2.5584 H       
  34 H34           -0.8893     0.2058     3.1647 H       
  35 H35           -2.4092    -4.5822    -0.1684 H       
  36 H36           -4.7091    -5.4228     0.0279 H       
  37 H37           -6.1241    -1.4205     0.6255 H       
  38 H38           -3.8246    -0.5773     0.4358 H       
  39 H39           -7.8106    -2.0389     0.7699 H       
  40 H40          -10.1102    -2.8912     0.9628 H       
  41 H41          -10.5536    -5.3029     0.7626 H       
  42 H42           -8.7019    -6.8742     0.3688 H       
  43 H43           -6.3968    -6.0394     0.1659 H       
@<TRIPOS>BOND
   1    1    2 2
   2    1    6 1
   3    1    5 1
   4    2    3 1
   5    2    9 1
   6    3    4 2
   7    3   11 1
   8    4    5 1
   9    4   10 1
  10    6    7 1
  11    6   25 1
  12    6   26 1
  13    7    8 1
  14    7   27 1
  15    7   28 1
  16    8    9 1
  17    8   29 1
  18    8   30 1
  19    9   31 1
  20    9   32 1
  21   10   33 1
  22   10   34 1
  23   11   12 1
  24   11   13 2
  25   12   14 ar
  26   12   18 ar
  27   14   15 ar
  28   14   35 1
  29   15   16 ar
  30   15   36 1
  31   16   17 ar
  32   16   19 1
  33   17   18 ar
  34   17   37 1
  35   18   38 1
  36   19   20 ar
  37   19   24 ar
  38   20   21 ar
  39   20   39 1
  40   21   22 ar
  41   21   40 1
  42   22   23 ar
  43   22   41 1
  44   23   24 ar
  45   23   42 1
  46   24   43 1

#	End of record

