#	Name: ASD01121005
#	Creating user name:	WinNT
#	Creation time:	15. 06. 2019 18:59

#	Modifying user name:	WinNT
#	Modification time:	15. 06. 2019 18:59

#	Program:	/corina/corina34_cracker 3.40 0067  02.08.2006

@<TRIPOS>MOLECULE
ASD01121005
  37   39    0    0    0
SMALL
NO_CHARGES


@<TRIPOS>ATOM
   1 C1            -0.0149     1.3417    -0.0174 C.2     
   2 N2             0.0058    -0.0057    -0.0395 N.am    
   3 O3            -1.0772     1.9333    -0.0098 O.2     
   4 N4             1.1417     2.0332     0.0021 N.am    
   5 S5            -1.4154    -0.8555    -0.0634 S.o2    
   6 O6            -1.0600    -2.2302    -0.1185 O.2     
   7 O7            -2.2300    -0.3037     0.9618 O.2     
   8 C8            -2.2175    -0.4874    -1.5885 C.ar    
   9 H9             0.8532    -0.4778    -0.0415 H       
  10 H10            1.9864     1.5634     0.0840 H       
  11 C11            1.1241     3.4266    -0.0957 C.ar    
  12 C12           -1.9718    -1.2656    -2.7039 C.ar    
  13 C13           -2.6012    -0.9768    -3.9006 C.ar    
  14 C14           -3.4765     0.0898    -3.9812 C.ar    
  15 C15           -3.7229     0.8677    -2.8652 C.ar    
  16 C16           -3.0970     0.5764    -1.6678 C.ar    
  17 C17           -2.3326    -1.8248    -5.1171 C.3     
  18 C18            0.1625     4.0571    -0.8601 C.ar    
  19 C19            0.1401     5.4425    -0.9611 C.ar    
  20 C20            1.0749     6.2097    -0.3023 C.ar    
  21 C21            2.0557     5.5978     0.4748 C.ar    
  22 C22            2.0823     4.1959     0.5885 C.ar    
  23 Br23          -1.1867     6.2830    -2.0140 Br      
  24 N24            3.0970     6.0716     1.2313 N.pl3   
  25 N25            3.7580     4.9746     1.7969 N.2     
  26 C26            3.1732     3.8715     1.4291 C.2     
  27 H27           -1.2879    -2.0991    -2.6409 H       
  28 H28           -3.9676     0.3159    -4.9162 H       
  29 H29           -4.4066     1.7014    -2.9283 H       
  30 H30           -3.2896     1.1840    -0.7960 H       
  31 H31           -3.0458    -2.6484    -5.1506 H       
  32 H32           -2.4383    -1.2158    -6.0149 H       
  33 H33           -1.3194    -2.2234    -5.0656 H       
  34 H34           -0.5771     3.4692    -1.3833 H       
  35 H35            1.0479     7.2859    -0.3885 H       
  36 H36            3.3345     7.0042     1.3528 H       
  37 H37            3.4718     2.8742     1.7167 H       
@<TRIPOS>BOND
   1    1    2 am
   2    1    4 am
   3    1    3 2
   4    2    5 am
   5    2    9 1
   6    4   10 1
   7    4   11 1
   8    5    7 2
   9    5    8 1
  10    5    6 2
  11    8   12 ar
  12    8   16 ar
  13   11   18 ar
  14   11   22 ar
  15   12   13 ar
  16   12   27 1
  17   13   14 ar
  18   13   17 1
  19   14   15 ar
  20   14   28 1
  21   15   16 ar
  22   15   29 1
  23   16   30 1
  24   17   31 1
  25   17   32 1
  26   17   33 1
  27   18   19 ar
  28   18   34 1
  29   19   20 ar
  30   19   23 1
  31   20   21 ar
  32   20   35 1
  33   21   22 ar
  34   21   24 1
  35   22   26 1
  36   24   25 1
  37   24   36 1
  38   25   26 2
  39   26   37 1

#	End of record

