#	Name: ASD03090537
#	Creating user name:	WinNT
#	Creation time:	15. 06. 2019 20:29

#	Modifying user name:	WinNT
#	Modification time:	15. 06. 2019 20:29

#	Program:	/corina/corina34_cracker 3.40 0067  02.08.2006

@<TRIPOS>MOLECULE
ASD03090537
  47   50    0    0    0
SMALL
NO_CHARGES


@<TRIPOS>ATOM
   1 C1            -2.2018     1.4717     0.6087 C.2     
   2 C2            -2.1846    -0.0351     0.5975 C.3     
   3 O3            -3.1170     2.0639     1.1407 O.2     
   4 N4            -1.1974     2.1614     0.0325 N.am    
   5 C5            -0.1173     4.3269     0.0509 C.ar    
   6 C6            -1.2670     3.5582    -0.0557 C.ar    
   7 C7            -2.4919     4.1927    -0.2521 C.ar    
   8 C8            -2.5127     5.5737    -0.3335 C.ar    
   9 C9            -1.3207     6.2771    -0.2177 C.ar    
  10 N10           -0.1755     5.6421    -0.0317 N.ar    
  11 O11           -1.3311     7.6321    -0.2967 O.3     
  12 C12           -0.1637     8.2933    -0.0762 C.ar    
  13 C13            0.8251     8.2982    -1.0491 C.ar    
  14 C14            2.0108     8.9703    -0.8253 C.ar    
  15 C15            2.2128     9.6405     0.3723 C.ar    
  16 C16            1.2241     9.6356     1.3451 C.ar    
  17 C17            0.0363     8.9680     1.1193 C.ar    
  18 O18            3.3803    10.3018     0.5928 O.3     
  19 C19            3.5202    10.9701     1.8481 C.3     
  20 F20            3.4138    10.0388     2.8866 F       
  21 F21            4.7711    11.5938     1.9074 F       
  22 F22            2.5128    11.9319     1.9792 F       
  23 N23           -6.8862    -1.9846     3.0103 N.pl3   
  24 C24           -7.7049    -2.0419     1.9155 C.2     
  25 C25           -7.0410    -1.6264     0.8253 C.2     
  26 C26           -5.6863    -1.2742     1.2574 C.ar    
  27 C27           -4.5531    -0.7905     0.6005 C.ar    
  28 C28           -3.4074    -0.5567     1.3073 C.ar    
  29 C29           -3.3607    -0.7963     2.6739 C.ar    
  30 C30           -4.4667    -1.2739     3.3417 C.ar    
  31 C31           -5.6439    -1.5190     2.6419 C.ar    
  32 H32           -2.1831    -0.3908    -0.4328 H       
  33 H33           -1.2892    -0.3920     1.1065 H       
  34 H34           -0.4264     1.6909    -0.3212 H       
  35 H35            0.8357     3.8434     0.2076 H       
  36 H36           -3.4034     3.6201    -0.3391 H       
  37 H37           -3.4444     6.0984    -0.4856 H       
  38 H38            0.6680     7.7761    -1.9814 H       
  39 H39            2.7808     8.9738    -1.5825 H       
  40 H40            1.3814    10.1574     2.2775 H       
  41 H41           -0.7352     8.9676     1.8752 H       
  42 H42           -7.1438    -2.2314     3.9124 H       
  43 H43           -8.7329    -2.3728     1.9267 H       
  44 H44           -7.4315    -1.5636    -0.1796 H       
  45 H45           -4.5818    -0.6026    -0.4627 H       
  46 H46           -2.4478    -0.6066     3.2190 H       
  47 H47           -4.4203    -1.4574     4.4050 H       
@<TRIPOS>BOND
   1    1    2 1
   2    1    3 2
   3    1    4 am
   4    2   28 1
   5    2   32 1
   6    2   33 1
   7    4    6 1
   8    4   34 1
   9    5    6 ar
  10    5   10 ar
  11    5   35 1
  12    6    7 ar
  13    7    8 ar
  14    7   36 1
  15    8    9 ar
  16    8   37 1
  17    9   10 ar
  18    9   11 1
  19   11   12 1
  20   12   13 ar
  21   12   17 ar
  22   13   14 ar
  23   13   38 1
  24   14   15 ar
  25   14   39 1
  26   15   16 ar
  27   15   18 1
  28   16   17 ar
  29   16   40 1
  30   17   41 1
  31   18   19 1
  32   19   20 1
  33   19   21 1
  34   19   22 1
  35   23   24 1
  36   23   31 1
  37   23   42 1
  38   24   25 2
  39   24   43 1
  40   25   26 1
  41   25   44 1
  42   26   27 ar
  43   26   31 ar
  44   27   28 ar
  45   27   45 1
  46   28   29 ar
  47   29   30 ar
  48   29   46 1
  49   30   31 ar
  50   30   47 1

#	End of record

