#	Name: ASD01882207
#	Creating user name:	WinNT
#	Creation time:	15. 06. 2019 19:44

#	Modifying user name:	WinNT
#	Modification time:	15. 06. 2019 19:44

#	Program:	/corina/corina34_cracker 3.40 0067  02.08.2006

@<TRIPOS>MOLECULE
ASD01882207
  31   32    0    0    0
SMALL
NO_CHARGES


@<TRIPOS>ATOM
   1 C1            -0.0187     1.5258     0.0104 C.3     
   2 C2             0.0021    -0.0041     0.0020 C.3     
   3 C3             0.7421    -0.5109     1.2415 C.3     
   4 C4             2.1775     0.0187     1.2307 C.3     
   5 C5             2.1567     1.5485     1.2391 C.3     
   6 C6             1.4167     2.0553    -0.0004 C.3     
   7 O7            -0.7098     1.9991    -1.1473 O.3     
   8 N8             2.8860    -0.4666     2.4176 N.pl3   
   9 C9             4.2792    -0.5812     2.4018 C.ar    
  10 C10            4.9530    -1.0415     3.5273 C.ar    
  11 C11            6.3300    -1.1535     3.5082 C.ar    
  12 C12            7.0378    -0.8074     2.3705 C.ar    
  13 C13            6.3696    -0.3486     1.2496 C.ar    
  14 C14            4.9922    -0.2408     1.2602 C.ar    
  15 Cl15           4.0655    -1.4747     4.9550 Cl      
  16 Br16           8.9224    -0.9613     2.3484 Br      
  17 H17           -0.5289     1.8773     0.9072 H       
  18 H18           -1.0205    -0.3814     0.0098 H       
  19 H19            0.5123    -0.3556    -0.8948 H       
  20 H20            0.2319    -0.1594     2.1383 H       
  21 H21            0.7568    -1.6008     1.2356 H       
  22 H22            2.6876    -0.3328     0.3339 H       
  23 H23            1.6465     1.9000     2.1359 H       
  24 H24            3.1793     1.9258     1.2314 H       
  25 H25            1.9269     1.7038    -0.8972 H       
  26 H26            1.4019     3.1452     0.0056 H       
  27 H27           -0.7617     2.9629    -1.2077 H       
  28 H28            2.3885    -0.7085     3.2143 H       
  29 H29            6.8544    -1.5110     4.3821 H       
  30 H30            6.9249    -0.0787     0.3635 H       
  31 H31            4.4711     0.1129     0.3829 H       
@<TRIPOS>BOND
   1    1    2 1
   2    1    6 1
   3    1    7 1
   4    1   17 1
   5    2    3 1
   6    2   18 1
   7    2   19 1
   8    3    4 1
   9    3   20 1
  10    3   21 1
  11    4    5 1
  12    4    8 1
  13    4   22 1
  14    5    6 1
  15    5   23 1
  16    5   24 1
  17    6   25 1
  18    6   26 1
  19    7   27 1
  20    8    9 1
  21    8   28 1
  22    9   10 ar
  23    9   14 ar
  24   10   11 ar
  25   10   15 1
  26   11   12 ar
  27   11   29 1
  28   12   13 ar
  29   12   16 1
  30   13   14 ar
  31   13   30 1
  32   14   31 1

#	End of record

