#	Name: ASD01200419
#	Creating user name:	WinNT
#	Creation time:	15. 06. 2019 19:09

#	Modifying user name:	WinNT
#	Modification time:	15. 06. 2019 19:09

#	Program:	/corina/corina34_cracker 3.40 0067  02.08.2006

@<TRIPOS>MOLECULE
ASD01200419
  74   77    0    0    0
SMALL
NO_CHARGES


@<TRIPOS>ATOM
   1 C1            -3.5422    -2.8421     5.4050 C.2     
   2 C2            -2.8501    -3.5889     4.2940 C.3     
   3 C3            -1.5471    -4.1938     4.8205 C.3     
   4 O4            -3.0443    -2.7982     6.5051 O.2     
   5 O5            -4.7089    -2.2211     5.1711 O.3     
   6 C6             0.3000    -5.5386     3.9739 C.2     
   7 C7             0.9776    -6.2698     2.8861 C.ar    
   8 C8             2.2007    -6.9178     3.1181 C.ar    
   9 C9             2.7938    -7.5840     2.0802 C.ar    
  10 C10            2.1715    -7.5996     0.8329 C.ar    
  11 N11            1.0158    -6.9786     0.6402 N.ar    
  12 C12            0.4087    -6.3317     1.6133 C.ar    
  13 O13            0.8010    -5.4945     5.0809 O.2     
  14 N14           -0.8743    -4.9197     3.7404 N.am    
  15 N15            2.7686    -8.2725    -0.2195 N.pl3   
  16 C16            4.0962    -8.8681    -0.0491 C.3     
  17 C17            3.9623   -10.2093     0.6249 C.ar    
  18 C18            4.8762   -10.5908     1.5900 C.ar    
  19 C19            4.7561   -11.8194     2.2096 C.ar    
  20 C20            3.7163   -12.6714     1.8628 C.ar    
  21 C21            2.8000   -12.2854     0.8938 C.ar    
  22 C22            2.9225   -11.0536     0.2812 C.ar    
  23 N23            3.5920   -13.9192     2.4895 N.pl3   
  24 N24            4.6036   -14.8789     2.6235 N.2     
  25 C25            4.1094   -15.9077     3.2639 C.2     
  26 C26            2.7686   -15.6374     3.5585 C.2     
  27 C27            2.4760   -14.4071     3.0770 C.2     
  28 C28            1.8194   -16.5525     4.2885 C.3     
  29 F29            2.4846   -17.7331     4.6362 F       
  30 F30            1.3587   -15.9182     5.4472 F       
  31 F31            0.7338   -16.8556     3.4598 F       
  32 C32            1.6699   -13.2074     0.5145 C.3     
  33 C33            5.7531   -12.2347     3.2606 C.3     
  34 C34            4.7536    -9.0491    -1.4188 C.3     
  35 C35            4.8106    -7.7009    -2.1584 C.3     
  36 C36            6.3024    -7.3990    -2.4098 C.3     
  37 C37            6.9825    -8.7901    -2.3757 C.3     
  38 C38            6.2127    -9.5193    -1.2467 C.3     
  39 C39           -5.3187    -1.5214     6.2877 C.3     
  40 C40           -6.6315    -0.8808     5.8326 C.3     
  41 H41           -3.5000    -4.3853     3.9316 H       
  42 H42           -2.6278    -2.9016     3.4777 H       
  43 H43           -0.8971    -3.3973     5.1829 H       
  44 H44           -1.7693    -4.8811     5.6368 H       
  45 H45            2.6636    -6.8911     4.0936 H       
  46 H46            3.7354    -8.0925     2.2259 H       
  47 H47           -0.5346    -5.8411     1.4236 H       
  48 H48           -1.2739    -4.9550     2.8573 H       
  49 H49            2.3079    -8.3496    -1.0697 H       
  50 H50            4.7124    -8.2123     0.5659 H       
  51 H51            5.6849    -9.9275     1.8594 H       
  52 H52            2.2079   -10.7512    -0.4700 H       
  53 H53            4.6443   -16.8102     3.5203 H       
  54 H54            1.5220   -13.9058     3.1472 H       
  55 H55            0.8421   -13.0731     1.2108 H       
  56 H56            1.3353   -12.9752    -0.4966 H       
  57 H57            2.0147   -14.2406     0.5548 H       
  58 H58            5.3599   -11.9961     4.2488 H       
  59 H59            5.9301   -13.3079     3.1895 H       
  60 H60            6.6902   -11.7007     3.1037 H       
  61 H61            4.1936    -9.7750    -2.0084 H       
  62 H62            4.2791    -7.7728    -3.1073 H       
  63 H63            4.3699    -6.9177    -1.5415 H       
  64 H64            6.4379    -6.9319    -3.3853 H       
  65 H65            6.7005    -6.7602    -1.6214 H       
  66 H66            6.8537    -9.3065    -3.3269 H       
  67 H67            8.0393    -8.6974    -2.1252 H       
  68 H68            6.5963    -9.2231    -0.2704 H       
  69 H69            6.2828   -10.5997    -1.3733 H       
  70 H70           -5.5193    -2.2278     7.0933 H       
  71 H71           -4.6407    -0.7462     6.6447 H       
  72 H72           -7.3095    -1.6560     5.4756 H       
  73 H73           -7.0893    -0.3556     6.6708 H       
  74 H74           -6.4310    -0.1744     5.0270 H       
@<TRIPOS>BOND
   1    1    2 1
   2    1    4 2
   3    1    5 1
   4    2    3 1
   5    2   41 1
   6    2   42 1
   7    3   14 1
   8    3   43 1
   9    3   44 1
  10    5   39 1
  11    6    7 1
  12    6   13 2
  13    6   14 am
  14    7    8 ar
  15    7   12 ar
  16    8    9 ar
  17    8   45 1
  18    9   10 ar
  19    9   46 1
  20   10   11 ar
  21   10   15 1
  22   11   12 ar
  23   12   47 1
  24   14   48 1
  25   15   16 1
  26   15   49 1
  27   16   17 1
  28   16   34 1
  29   16   50 1
  30   17   18 ar
  31   17   22 ar
  32   18   19 ar
  33   18   51 1
  34   19   20 ar
  35   19   33 1
  36   20   21 ar
  37   20   23 1
  38   21   22 ar
  39   21   32 1
  40   22   52 1
  41   23   24 1
  42   23   27 1
  43   24   25 2
  44   25   26 1
  45   25   53 1
  46   26   27 2
  47   26   28 1
  48   27   54 1
  49   28   29 1
  50   28   30 1
  51   28   31 1
  52   32   55 1
  53   32   56 1
  54   32   57 1
  55   33   58 1
  56   33   59 1
  57   33   60 1
  58   34   35 1
  59   34   38 1
  60   34   61 1
  61   35   36 1
  62   35   62 1
  63   35   63 1
  64   36   37 1
  65   36   64 1
  66   36   65 1
  67   37   38 1
  68   37   66 1
  69   37   67 1
  70   38   68 1
  71   38   69 1
  72   39   40 1
  73   39   70 1
  74   39   71 1
  75   40   72 1
  76   40   73 1
  77   40   74 1

#	End of record

