#	Name: ASD01916770
#	Creating user name:	WinNT
#	Creation time:	15. 06. 2019 20:08

#	Modifying user name:	WinNT
#	Modification time:	15. 06. 2019 20:08

#	Program:	/corina/corina34_cracker 3.40 0067  02.08.2006

@<TRIPOS>MOLECULE
ASD01916770
  68   72    0    0    0
SMALL
NO_CHARGES


@<TRIPOS>ATOM
   1 C1            -0.0161     1.3075     0.0930 C.2     
   2 N2            -0.0006     0.0184    -0.1698 N.2     
   3 N3            -1.3370    -0.4125    -0.1793 N.pl3   
   4 C4            -2.0927     0.6783     0.0864 C.2     
   5 N5            -1.2838     1.7030     0.2529 N.2     
   6 C6             1.1796     2.1801     0.2010 C.ar    
   7 C7             1.0322     3.5363     0.4851 C.ar    
   8 C8             2.4536     1.6451     0.0243 C.ar    
   9 C9             3.5623     2.4612     0.1257 C.ar    
  10 C10            3.4100     3.8076     0.4027 C.ar    
  11 C11           -1.8182    -1.7737    -0.4282 C.3     
  12 C12           -1.8552    -2.5386     0.8697 C.2     
  13 N13           -2.2682    -3.8215     0.8843 N.am    
  14 O14           -1.5133    -1.9998     1.9011 O.2     
  15 C15           -2.3120    -4.5861     2.1400 C.3     
  16 C16           -3.6999    -5.2215     2.2748 C.3     
  17 N17           -3.9994    -5.9977     1.0641 N.3     
  18 C18           -4.0602    -5.1329    -0.1218 C.3     
  19 C19           -2.6928    -4.4920    -0.3539 C.3     
  20 C20           -5.1738    -6.7185     1.2140 C.ar    
  21 N21           -5.8689    -6.6496     2.3475 N.ar    
  22 C22           -6.9860    -7.3314     2.4969 C.ar    
  23 N23           -7.4623    -8.1052     1.5425 N.ar    
  24 C24           -6.8263    -8.2274     0.3808 C.ar    
  25 C25           -5.6472    -7.5210     0.1792 C.ar    
  26 C26           -3.5694     0.7120     0.1788 C.ar    
  27 C27           -4.2523     1.9206     0.0414 C.ar    
  28 C28           -5.6292     1.9453     0.1280 C.ar    
  29 C29           -6.3323     0.7748     0.3505 C.ar    
  30 C30           -5.6607    -0.4268     0.4881 C.ar    
  31 C31           -4.2844    -0.4656     0.3978 C.ar    
  32 C32            2.1474     4.3431     0.5843 C.ar    
  33 O33           -7.3244    -9.0258    -0.5947 O.3     
  34 C34           -8.5444    -9.7135    -0.3104 C.3     
  35 C35            1.9892     5.8111     0.8858 C.3     
  36 C36            2.7245     6.1470     2.1848 C.3     
  37 C37            2.5790     6.6338    -0.2615 C.3     
  38 H38            0.0469     3.9553     0.6270 H       
  39 H39            2.5737     0.5937    -0.1914 H       
  40 H40            4.5505     2.0475    -0.0111 H       
  41 H41            4.2801     4.4425     0.4815 H       
  42 H42           -2.8206    -1.7325    -0.8544 H       
  43 H43           -1.1470    -2.2744    -1.1260 H       
  44 H44           -1.5521    -5.3673     2.1196 H       
  45 H45           -2.1318    -3.9179     2.9821 H       
  46 H46           -3.7154    -5.8808     3.1426 H       
  47 H47           -4.4479    -4.4384     2.3991 H       
  48 H48           -4.3369    -5.7279    -0.9921 H       
  49 H49           -4.8031    -4.3510     0.0358 H       
  50 H50           -2.7623    -3.7632    -1.1615 H       
  51 H51           -1.9667    -5.2623    -0.6136 H       
  52 H52           -7.5269    -7.2543     3.4285 H       
  53 H53           -5.1073    -7.5988    -0.7529 H       
  54 H54           -3.7045     2.8350    -0.1320 H       
  55 H55           -6.1590     2.8804     0.0221 H       
  56 H56           -7.4099     0.7994     0.4175 H       
  57 H57           -6.2152    -1.3372     0.6620 H       
  58 H58           -3.7613    -1.4043     0.5049 H       
  59 H59           -8.8314   -10.3158    -1.1723 H       
  60 H60           -8.4031   -10.3614     0.5547 H       
  61 H61           -9.3292    -8.9879    -0.0966 H       
  62 H62            0.9309     6.0475     0.9957 H       
  63 H63            3.7828     5.9106     2.0748 H       
  64 H64            2.6101     7.2089     2.4029 H       
  65 H65            2.3043     5.5609     3.0021 H       
  66 H66            3.6374     6.3974    -0.3714 H       
  67 H67            2.0552     6.3945    -1.1869 H       
  68 H68            2.4646     7.6956    -0.0434 H       
@<TRIPOS>BOND
   1    1    2 2
   2    1    6 1
   3    1    5 1
   4    2    3 1
   5    3    4 1
   6    3   11 1
   7    4    5 2
   8    4   26 1
   9    6    7 ar
  10    6    8 ar
  11    7   32 ar
  12    7   38 1
  13    8    9 ar
  14    8   39 1
  15    9   10 ar
  16    9   40 1
  17   10   32 ar
  18   10   41 1
  19   11   12 1
  20   11   42 1
  21   11   43 1
  22   12   13 am
  23   12   14 2
  24   13   15 1
  25   13   19 1
  26   15   16 1
  27   15   44 1
  28   15   45 1
  29   16   17 1
  30   16   46 1
  31   16   47 1
  32   17   18 1
  33   17   20 1
  34   18   19 1
  35   18   48 1
  36   18   49 1
  37   19   50 1
  38   19   51 1
  39   20   21 ar
  40   20   25 ar
  41   21   22 ar
  42   22   23 ar
  43   22   52 1
  44   23   24 ar
  45   24   25 ar
  46   24   33 1
  47   25   53 1
  48   26   27 ar
  49   26   31 ar
  50   27   28 ar
  51   27   54 1
  52   28   29 ar
  53   28   55 1
  54   29   30 ar
  55   29   56 1
  56   30   31 ar
  57   30   57 1
  58   31   58 1
  59   32   35 1
  60   33   34 1
  61   34   59 1
  62   34   60 1
  63   34   61 1
  64   35   36 1
  65   35   37 1
  66   35   62 1
  67   36   63 1
  68   36   64 1
  69   36   65 1
  70   37   66 1
  71   37   67 1
  72   37   68 1

#	End of record

