#	Name: ASD09740006
#	Creating user name:	WinNT
#	Creation time:	15. 06. 2019 21:22

#	Modifying user name:	WinNT
#	Modification time:	15. 06. 2019 21:22

#	Program:	/corina/corina34_cracker 3.40 0067  02.08.2006

@<TRIPOS>MOLECULE
ASD09740006
  36   38    0    0    0
SMALL
NO_CHARGES


@<TRIPOS>ATOM
   1 N1            -0.0144     1.2085     0.0087 N.2     
   2 O2             0.0021    -0.0041     0.0020 O.3     
   3 C3             1.2056     1.6802    -0.0004 C.2     
   4 N4             2.0459     0.6248    -0.0141 N.2     
   5 C5             1.2702    -0.4439    -0.0125 C.2     
   6 C6             1.7130    -1.8527    -0.0242 C.ar    
   7 C7             0.7701    -2.8831    -0.0208 C.ar    
   8 C8             3.0758    -2.1582    -0.0447 C.ar    
   9 C9             3.4848    -3.4737    -0.0556 C.ar    
  10 C10            2.5438    -4.4959    -0.0463 C.ar    
  11 C11            1.1872    -4.1961    -0.0318 C.ar    
  12 C12            1.5942     3.1136     0.0031 C.ar    
  13 C13            0.6251     4.1196     0.0178 C.ar    
  14 C14            1.0297     5.4394     0.0211 C.ar    
  15 N15            2.3103     5.7548     0.0106 N.ar    
  16 C16            3.2562     4.8358    -0.0034 C.ar    
  17 C17            2.9388     3.4924    -0.0023 C.ar    
  18 O18            2.9509    -5.7911    -0.0571 O.3     
  19 C19            1.9309    -6.7919    -0.0466 C.3     
  20 C20            2.5769    -8.1787    -0.0611 C.3     
  21 C21            1.4848    -9.2502    -0.0499 C.3     
  22 H22           -0.2846    -2.6509    -0.0091 H       
  23 H23            3.8079    -1.3643    -0.0523 H       
  24 H24            4.5384    -3.7108    -0.0717 H       
  25 H25            0.4587    -4.9934    -0.0246 H       
  26 H26           -0.4252     3.8685     0.0261 H       
  27 H27            0.2878     6.2242     0.0321 H       
  28 H28            4.2929     5.1384    -0.0120 H       
  29 H29            3.7185     2.7451    -0.0134 H       
  30 H30            1.3243    -6.6830     0.8525 H       
  31 H31            1.2992    -6.6761    -0.9273 H       
  32 H32            3.1835    -8.2876    -0.9602 H       
  33 H33            3.2086    -8.2945     0.8196 H       
  34 H34            0.8782    -9.1413     0.8492 H       
  35 H35            0.8531    -9.1344    -0.9306 H       
  36 H36            1.9451   -10.2382    -0.0602 H       
@<TRIPOS>BOND
   1    1    2 1
   2    1    3 2
   3    2    5 1
   4    3    4 1
   5    3   12 1
   6    4    5 2
   7    5    6 1
   8    6    7 ar
   9    6    8 ar
  10    7   11 ar
  11    7   22 1
  12    8    9 ar
  13    8   23 1
  14    9   10 ar
  15    9   24 1
  16   10   11 ar
  17   10   18 1
  18   11   25 1
  19   12   13 ar
  20   12   17 ar
  21   13   14 ar
  22   13   26 1
  23   14   15 ar
  24   14   27 1
  25   15   16 ar
  26   16   17 ar
  27   16   28 1
  28   17   29 1
  29   18   19 1
  30   19   20 1
  31   19   30 1
  32   19   31 1
  33   20   21 1
  34   20   32 1
  35   20   33 1
  36   21   34 1
  37   21   35 1
  38   21   36 1

#	End of record

