#	Name: ASD07930834
#	Creating user name:	WinNT
#	Creation time:	15. 06. 2019 21:13

#	Modifying user name:	WinNT
#	Modification time:	15. 06. 2019 21:13

#	Program:	/corina/corina34_cracker 3.40 0067  02.08.2006

@<TRIPOS>MOLECULE
ASD07930834
  30   32    0    0    0
SMALL
NO_CHARGES


@<TRIPOS>ATOM
   1 O1            -0.0376     1.4546    -0.0022 O.3     
   2 N2             0.0007    -0.0217    -0.0036 N.3     
   3 C3             1.0982    -0.3917     0.9201 C.3     
   4 C4             2.0386     0.8469     0.9349 C.3     
   5 C5             1.3514     1.8554    -0.0103 C.3     
   6 O6             3.3195    -1.0914     0.4743 O.3     
   7 C7             1.9508    -1.4949     0.2559 C.3     
   8 C8             3.3325     0.3373     0.2652 C.3     
   9 C9             4.5592     0.9621     0.9329 C.3     
  10 C10            0.6009    -0.7837     2.2875 C.ar    
  11 C11            1.4979    -1.1992     3.2574 C.ar    
  12 C12            1.0413    -1.5592     4.5134 C.ar    
  13 C13           -0.3119    -1.5037     4.7991 C.ar    
  14 C14           -1.2078    -1.0878     3.8277 C.ar    
  15 C15           -0.7494    -0.7230     2.5749 C.ar    
  16 F16           -0.7589    -1.8553     6.0246 F       
  17 F17            2.8184    -1.2535     2.9774 F       
  18 Br18          -3.0567    -1.0122     4.2170 Br      
  19 H19           -0.8787    -0.4065     0.3073 H       
  20 H20            2.1989     1.2477     1.9357 H       
  21 H21            1.7650     1.7792    -1.0159 H       
  22 H22            1.4581     2.8706     0.3717 H       
  23 H23            1.7596    -2.4579     0.7294 H       
  24 H24            1.7371    -1.5476    -0.8116 H       
  25 H25            3.3227     0.5647    -0.8008 H       
  26 H26            4.5753     0.6917     1.9887 H       
  27 H27            5.4636     0.5927     0.4494 H       
  28 H28            4.5125     2.0468     0.8362 H       
  29 H29            1.7404    -1.8836     5.2700 H       
  30 H30           -1.4477    -0.3943     1.8194 H       
@<TRIPOS>BOND
   1    1    2 1
   2    1    5 1
   3    2    3 1
   4    2   19 1
   5    3    7 1
   6    3   10 1
   7    3    4 1
   8    4    5 1
   9    4    8 1
  10    4   20 1
  11    5   21 1
  12    5   22 1
  13    6    7 1
  14    6    8 1
  15    7   23 1
  16    7   24 1
  17    8    9 1
  18    8   25 1
  19    9   26 1
  20    9   27 1
  21    9   28 1
  22   10   11 ar
  23   10   15 ar
  24   11   12 ar
  25   11   17 1
  26   12   13 ar
  27   12   29 1
  28   13   14 ar
  29   13   16 1
  30   14   15 ar
  31   14   18 1
  32   15   30 1

#	End of record

