#	Name: ASD01208118
#	Creating user name:	WinNT
#	Creation time:	15. 06. 2019 19:09

#	Modifying user name:	WinNT
#	Modification time:	15. 06. 2019 19:09

#	Program:	/corina/corina34_cracker 3.40 0067  02.08.2006

@<TRIPOS>MOLECULE
ASD01208118
  57   60    0    0    0
SMALL
NO_CHARGES


@<TRIPOS>ATOM
   1 C1            -0.0654     1.4584    -0.0028 C.ar    
   2 C2             0.0534     0.0767    -0.0355 C.ar    
   3 C3            -1.0803    -0.7225     0.0109 C.ar    
   4 C4            -2.3357    -0.1430     0.0900 C.ar    
   5 C5            -2.4596     1.2466     0.1232 C.ar    
   6 C6            -1.3169     2.0462     0.0821 C.ar    
   7 C7            -3.7974     1.8697     0.2072 C.2     
   8 C8            -4.0565     3.2210     0.2464 C.2     
   9 N9            -4.9892     1.2030     0.2533 N.pl3   
  10 C10           -6.0051     2.1265     0.3277 C.2     
  11 C11           -5.4406     3.3836     0.3243 C.2     
  12 O12            1.0479     2.2365    -0.0485 O.3     
  13 C13            0.8492     3.6485    -0.1420 C.3     
  14 C14            2.0766     4.2946    -0.7878 C.3     
  15 O15            3.2085     4.1280     0.0684 O.3     
  16 C16            0.6452     4.2287     1.2590 C.3     
  17 O17           -0.9585    -2.0756    -0.0219 O.3     
  18 C18           -1.4241    -2.7309    -1.1151 C.ar    
  19 N19           -1.8805    -2.0494    -2.1542 N.ar    
  20 C20           -1.4187    -4.1228    -1.1509 C.ar    
  21 C21           -1.9052    -4.7450    -2.2907 C.ar    
  22 C22           -2.3670    -3.9432    -3.3243 C.ar    
  23 N23           -2.3295    -2.6305    -3.2069 N.ar    
  24 C24           -7.4423     1.8256     0.3951 C.2     
  25 N25           -8.3595     2.7459     0.4639 N.2     
  26 C26           -9.6776     2.0856     0.5324 C.3     
  27 C27           -9.2910     0.6270     0.8780 C.3     
  28 O28           -7.9348     0.5681     0.3858 O.3     
  29 S29           -2.9963    -4.6788    -4.7966 S.o2    
  30 C30           -4.7686    -4.8921    -4.4741 C.3     
  31 O31           -2.7869    -3.6927    -5.7981 O.2     
  32 O32           -2.3462    -5.9406    -4.8635 O.2     
  33 C33           -9.3436     0.3881     2.3884 C.3     
  34 H34            1.0309    -0.3784    -0.0976 H       
  35 H35           -3.2175    -0.7655     0.1257 H       
  36 H36           -1.4085     3.1220     0.1075 H       
  37 H37           -3.3218     4.0123     0.2217 H       
  38 H38           -5.1001     0.2395     0.2361 H       
  39 H39           -5.9718     4.3226     0.3731 H       
  40 H40           -0.0314     3.8520    -0.7513 H       
  41 H41            2.2744     3.8190    -1.7484 H       
  42 H42            1.8897     5.3576    -0.9403 H       
  43 H43            4.0243     4.5142    -0.2786 H       
  44 H44            1.5258     4.0253     1.8683 H       
  45 H45            0.4936     5.3058     1.1877 H       
  46 H46           -0.2292     3.7684     1.7190 H       
  47 H47           -1.0468    -4.6999    -0.3171 H       
  48 H48           -1.9237    -5.8218    -2.3715 H       
  49 H49          -10.2912     2.5226     1.3202 H       
  50 H50          -10.1882     2.1353    -0.4293 H       
  51 H51           -9.9275    -0.0823     0.3491 H       
  52 H52           -5.2219    -3.9202    -4.2788 H       
  53 H53           -5.2439    -5.3467    -5.3433 H       
  54 H54           -4.9049    -5.5375    -3.6064 H       
  55 H55          -10.3540     0.5769     2.7511 H       
  56 H56           -9.0675    -0.6443     2.6028 H       
  57 H57           -8.6467     1.0616     2.8872 H       
@<TRIPOS>BOND
   1    1    2 ar
   2    1   12 1
   3    1    6 ar
   4    2    3 ar
   5    2   34 1
   6    3    4 ar
   7    3   17 1
   8    4    5 ar
   9    4   35 1
  10    5    6 ar
  11    5    7 1
  12    6   36 1
  13    7    8 2
  14    7    9 1
  15    8   11 1
  16    8   37 1
  17    9   10 1
  18    9   38 1
  19   10   11 2
  20   10   24 1
  21   11   39 1
  22   12   13 1
  23   13   14 1
  24   13   16 1
  25   13   40 1
  26   14   15 1
  27   14   41 1
  28   14   42 1
  29   15   43 1
  30   16   44 1
  31   16   45 1
  32   16   46 1
  33   17   18 1
  34   18   19 ar
  35   18   20 ar
  36   19   23 ar
  37   20   21 ar
  38   20   47 1
  39   21   22 ar
  40   21   48 1
  41   22   23 ar
  42   22   29 1
  43   24   25 2
  44   24   28 1
  45   25   26 1
  46   26   27 1
  47   26   49 1
  48   26   50 1
  49   27   28 1
  50   27   33 1
  51   27   51 1
  52   29   30 1
  53   29   31 2
  54   29   32 2
  55   30   52 1
  56   30   53 1
  57   30   54 1
  58   33   55 1
  59   33   56 1
  60   33   57 1

#	End of record

