#	Name: ASD03331343
#	Creating user name:	WinNT
#	Creation time:	15. 06. 2019 20:39

#	Modifying user name:	WinNT
#	Modification time:	15. 06. 2019 20:39

#	Program:	/corina/corina34_cracker 3.40 0067  02.08.2006

@<TRIPOS>MOLECULE
ASD03331343
  68   71    0    0    0
SMALL
NO_CHARGES


@<TRIPOS>ATOM
   1 C1             0.1811     1.2688     0.8100 C.3     
   2 C2             0.1764    -0.2098     0.5138 C.2     
   3 C3             1.2449    -0.8748     0.0123 C.2     
   4 C4             2.5581    -0.2052    -0.3098 C.3     
   5 C5             2.3149     1.3099    -0.3551 C.3     
   6 N6             1.5800     1.7282     0.8466 N.3     
   7 N7            -0.4304    -2.3163     0.3017 N.2     
   8 N8             0.8991    -2.1768    -0.1266 N.am    
   9 C9            -0.8663    -1.1339     0.6869 C.2     
  10 C10            1.6905    -3.1630    -0.5930 C.2     
  11 O11            2.8301    -2.9169    -0.9351 O.2     
  12 N12            1.2178    -4.4221    -0.6800 N.am    
  13 C13           -2.2208    -0.8322     1.2112 C.ar    
  14 C14           -2.7897    -1.6473     2.1910 C.ar    
  15 C15           -4.0517    -1.3620     2.6769 C.ar    
  16 C16           -4.7517    -0.2697     2.1927 C.ar    
  17 C17           -4.1902     0.5430     1.2184 C.ar    
  18 C18           -2.9266     0.2691     0.7313 C.ar    
  19 F19           -4.8778     1.6071     0.7494 F       
  20 F20           -5.9852     0.0052     2.6702 F       
  21 F21           -2.1079    -2.7137     2.6634 F       
  22 C22            1.6515     3.1843     1.0272 C.3     
  23 C23            1.2236    -6.5964    -1.7578 C.2     
  24 C24            2.0781    -5.4941    -1.1870 C.3     
  25 C25            2.9292    -6.0490    -0.0431 C.3     
  26 C26            3.7313    -7.2527    -0.5417 C.3     
  27 O27            0.1592    -6.8669    -1.2430 O.2     
  28 C28            3.8898    -4.9651     0.4502 C.3     
  29 C29            2.0178    -6.4842     1.1062 C.3     
  30 N30            1.6421    -7.2816    -2.8403 N.am    
  31 C31            0.9664    -8.4459    -3.4313 C.3     
  32 C32            1.8185    -8.9097    -4.6315 C.3     
  33 C33            3.2207    -8.3303    -4.3067 C.3     
  34 C34            2.8498    -6.9838    -3.6316 C.3     
  35 C35            0.8689    -9.5531    -2.4137 C.2     
  36 N36            0.2822   -10.7210    -2.7427 N.am    
  37 O37            1.3184    -9.3932    -1.2987 O.2     
  38 H38           -0.3604     1.8019     0.0285 H       
  39 H39           -0.2911     1.4517     1.7753 H       
  40 H40            3.2905    -0.4384     0.4630 H       
  41 H41            2.9202    -0.5499    -1.2784 H       
  42 H42            3.2720     1.8300    -0.3946 H       
  43 H43            1.7312     1.5574    -1.2418 H       
  44 H44            0.3080    -4.6186    -0.4068 H       
  45 H45           -4.4927    -1.9922     3.4350 H       
  46 H46           -2.4885     0.9049    -0.0239 H       
  47 H47            1.1691     3.4581     1.9655 H       
  48 H48            2.6955     3.4967     1.0507 H       
  49 H49            1.1429     3.6784     0.1994 H       
  50 H50            2.7298    -5.0991    -1.9662 H       
  51 H51            4.4402    -6.9269    -1.3029 H       
  52 H52            4.2732    -7.6989     0.2922 H       
  53 H53            3.0520    -7.9900    -0.9696 H       
  54 H54            3.3183    -4.1075     0.8054 H       
  55 H55            4.4962    -5.3604     1.2651 H       
  56 H56            4.5391    -4.6550    -0.3686 H       
  57 H57            1.3335    -7.2564     0.7548 H       
  58 H58            2.6242    -6.8795     1.9211 H       
  59 H59            1.4464    -5.6267     1.4614 H       
  60 H60           -0.0299    -8.1633    -3.7713 H       
  61 H61            1.8532    -9.9979    -4.6823 H       
  62 H62            1.4344    -8.4912    -5.5618 H       
  63 H63            3.7621    -8.9799    -3.6189 H       
  64 H64            3.7951    -8.1633    -5.2179 H       
  65 H65            2.6326    -6.2263    -4.3847 H       
  66 H66            3.6578    -6.6513    -2.9800 H       
  67 H67           -0.0773   -10.8489    -3.6345 H       
  68 H68            0.2195   -11.4337    -2.0876 H       
@<TRIPOS>BOND
   1    1    2 1
   2    1    6 1
   3    1   38 1
   4    1   39 1
   5    2    3 2
   6    2    9 1
   7    3    4 1
   8    3    8 1
   9    4    5 1
  10    4   40 1
  11    4   41 1
  12    5    6 1
  13    5   42 1
  14    5   43 1
  15    6   22 1
  16    7    8 1
  17    7    9 2
  18    8   10 am
  19    9   13 1
  20   10   11 2
  21   10   12 am
  22   12   24 1
  23   12   44 1
  24   13   14 ar
  25   13   18 ar
  26   14   15 ar
  27   14   21 1
  28   15   16 ar
  29   15   45 1
  30   16   17 ar
  31   16   20 1
  32   17   18 ar
  33   17   19 1
  34   18   46 1
  35   22   47 1
  36   22   48 1
  37   22   49 1
  38   23   27 2
  39   23   30 am
  40   23   24 1
  41   24   25 1
  42   24   50 1
  43   25   26 1
  44   25   28 1
  45   25   29 1
  46   26   51 1
  47   26   52 1
  48   26   53 1
  49   28   54 1
  50   28   55 1
  51   28   56 1
  52   29   57 1
  53   29   58 1
  54   29   59 1
  55   30   31 1
  56   30   34 1
  57   31   32 1
  58   31   35 1
  59   31   60 1
  60   32   33 1
  61   32   61 1
  62   32   62 1
  63   33   34 1
  64   33   63 1
  65   33   64 1
  66   34   65 1
  67   34   66 1
  68   35   36 am
  69   35   37 2
  70   36   67 1
  71   36   68 1

#	End of record

