#	Name: ASD03092583
#	Creating user name:	WinNT
#	Creation time:	15. 06. 2019 20:32

#	Modifying user name:	WinNT
#	Modification time:	15. 06. 2019 20:32

#	Program:	/corina/corina34_cracker 3.40 0067  02.08.2006

@<TRIPOS>MOLECULE
ASD03092583
  38   40    0    0    0
SMALL
NO_CHARGES


@<TRIPOS>ATOM
   1 O1            -0.0143     1.2047     0.0087 O.3     
   2 N2             0.0021    -0.0041     0.0020 N.2     
   3 C3             1.2152    -0.4747    -0.0121 C.2     
   4 C4             2.0809     0.6416    -0.0144 C.2     
   5 C5             1.2318     1.7144    -0.0005 C.2     
   6 C6             1.6061     3.1413     0.0029 C.2     
   7 O7             2.7788     3.4622    -0.0070 O.2     
   8 N8             0.6481     4.0892     0.0168 N.am    
   9 C9             1.6179    -1.9268    -0.0230 C.3     
  10 C10            0.9680    -2.6452     1.1613 C.3     
  11 F11           -0.4238    -2.5465     1.0598 F       
  12 F12            1.3418    -3.9933     1.1511 F       
  13 F13            1.3917    -2.0527     2.3557 F       
  14 C14            1.0198     5.5063     0.0202 C.3     
  15 N15           -3.6307     8.6666     0.3542 N.pl3   
  16 C16           -3.7571     8.7545     1.7138 C.2     
  17 C17           -2.7624     8.0788     2.3105 C.2     
  18 C18           -1.9311     7.5119     1.2459 C.ar    
  19 C19           -0.7761     6.7273     1.2301 C.ar    
  20 C20           -0.2270     6.3526     0.0365 C.ar    
  21 C21           -0.8082     6.7456    -1.1615 C.ar    
  22 C22           -1.9474     7.5200    -1.1690 C.ar    
  23 C23           -2.5235     7.9131     0.0348 C.ar    
  24 C24           -4.8506     9.4999     2.4347 C.3     
  25 H25           -5.6924     8.8300     2.6100 H       
  26 H26           -4.4726     9.8660     3.3892 H       
  27 H27           -5.1779    10.3429     1.8261 H       
  28 H28            3.1608     0.6469    -0.0243 H       
  29 H29           -0.2875     3.8332     0.0247 H       
  30 H30            1.2878    -2.3885    -0.9536 H       
  31 H31            2.7023    -2.0038     0.0561 H       
  32 H32            1.6176     5.7230     0.9055 H       
  33 H33            1.6003     5.7317    -0.8744 H       
  34 H34           -4.2337     9.0714    -0.2888 H       
  35 H35           -2.6049     7.9732     3.3737 H       
  36 H36           -0.3180     6.4186     2.1581 H       
  37 H37           -0.3624     6.4414    -2.0970 H       
  38 H38           -2.3918     7.8209    -2.1062 H       
@<TRIPOS>BOND
   1    1    2 1
   2    1    5 1
   3    2    3 2
   4    3    4 1
   5    3    9 1
   6    4    5 2
   7    4   28 1
   8    5    6 1
   9    6    7 2
  10    6    8 am
  11    8   14 1
  12    8   29 1
  13    9   10 1
  14    9   30 1
  15    9   31 1
  16   10   11 1
  17   10   12 1
  18   10   13 1
  19   14   20 1
  20   14   32 1
  21   14   33 1
  22   15   16 1
  23   15   23 1
  24   15   34 1
  25   16   17 2
  26   16   24 1
  27   17   18 1
  28   17   35 1
  29   18   19 ar
  30   18   23 ar
  31   19   20 ar
  32   19   36 1
  33   20   21 ar
  34   21   22 ar
  35   21   37 1
  36   22   23 ar
  37   22   38 1
  38   24   25 1
  39   24   26 1
  40   24   27 1

#	End of record

