#	Name: ASD09530008
#	Creating user name:	WinNT
#	Creation time:	15. 06. 2019 21:22

#	Modifying user name:	WinNT
#	Modification time:	15. 06. 2019 21:22

#	Program:	/corina/corina34_cracker 3.40 0067  02.08.2006

@<TRIPOS>MOLECULE
ASD09530008
  43   45    0    0    0
SMALL
NO_CHARGES


@<TRIPOS>ATOM
   1 N1             0.2031    -0.5131     1.5862 N.am    
   2 C2             0.6337    -1.7626     1.4060 C.2     
   3 C3             2.0526    -2.0950     1.0328 C.3     
   4 N4             2.7372    -0.8615     0.6181 N.am    
   5 C5             2.5004     0.3467     1.4261 C.3     
   6 C6             1.0085     0.6794     1.3616 C.3     
   7 O7            -0.1550    -2.6727     1.5501 O.2     
   8 C8             3.5489    -0.8377    -0.4577 C.2     
   9 C9             3.7700    -2.0923    -1.2627 C.3     
  10 C10            4.7257    -1.7941    -2.4197 C.3     
  11 O11            4.1013     0.1935    -0.7778 O.2     
  12 C12            5.0435    -3.0729    -3.1510 C.ar    
  13 C13            6.3596    -3.4298    -3.3782 C.ar    
  14 C14            6.6523    -4.6025    -4.0483 C.ar    
  15 C15            5.6267    -5.4200    -4.4922 C.ar    
  16 C16            4.3090    -5.0615    -4.2641 C.ar    
  17 C17            4.0188    -3.8910    -3.5891 C.ar    
  18 F18            5.9116    -6.5664    -5.1478 F       
  19 C19            4.0766    -0.8204    -3.3692 C.ar    
  20 C20            4.7464     0.3293    -3.7443 C.ar    
  21 C21            4.1523     1.2227    -4.6154 C.ar    
  22 C22            2.8857     0.9660    -5.1124 C.ar    
  23 C23            2.2158    -0.1858    -4.7359 C.ar    
  24 C24            2.8141    -1.0804    -3.8689 C.ar    
  25 F25            2.3038     1.8389    -5.9636 F       
  26 H26           -0.7118    -0.3899     1.8839 H       
  27 H27            2.5651    -2.5253     1.8932 H       
  28 H28            2.0558    -2.8089     0.2092 H       
  29 H29            2.7914     0.1606     2.4599 H       
  30 H30            3.0802     1.1776     1.0241 H       
  31 H31            0.7747     1.0905     0.3795 H       
  32 H32            0.7729     1.4206     2.1253 H       
  33 H33            4.2021    -2.8625    -0.6238 H       
  34 H34            2.8169    -2.4420    -1.6595 H       
  35 H35            5.6462    -1.3611    -2.0282 H       
  36 H36            7.1594    -2.7918    -3.0322 H       
  37 H37            7.6805    -4.8809    -4.2261 H       
  38 H38            3.5082    -5.6984    -4.6099 H       
  39 H39            2.9911    -3.6132    -3.4074 H       
  40 H40            5.7342     0.5295    -3.3562 H       
  41 H41            4.6756     2.1210    -4.9080 H       
  42 H42            1.2279    -0.3871    -5.1230 H       
  43 H43            2.2934    -1.9809    -3.5783 H       
@<TRIPOS>BOND
   1    1    2 am
   2    1    6 1
   3    1   26 1
   4    2    3 1
   5    2    7 2
   6    3    4 1
   7    3   27 1
   8    3   28 1
   9    4    5 1
  10    4    8 am
  11    5    6 1
  12    5   29 1
  13    5   30 1
  14    6   31 1
  15    6   32 1
  16    8    9 1
  17    8   11 2
  18    9   10 1
  19    9   33 1
  20    9   34 1
  21   10   12 1
  22   10   19 1
  23   10   35 1
  24   12   13 ar
  25   12   17 ar
  26   13   14 ar
  27   13   36 1
  28   14   15 ar
  29   14   37 1
  30   15   16 ar
  31   15   18 1
  32   16   17 ar
  33   16   38 1
  34   17   39 1
  35   19   20 ar
  36   19   24 ar
  37   20   21 ar
  38   20   40 1
  39   21   22 ar
  40   21   41 1
  41   22   23 ar
  42   22   25 1
  43   23   24 ar
  44   23   42 1
  45   24   43 1

#	End of record

