#	Name: ASD01885054
#	Creating user name:	WinNT
#	Creation time:	15. 06. 2019 19:49

#	Modifying user name:	WinNT
#	Modification time:	15. 06. 2019 19:49

#	Program:	/corina/corina34_cracker 3.40 0067  02.08.2006

@<TRIPOS>MOLECULE
ASD01885054
  47   50    0    0    0
SMALL
NO_CHARGES


@<TRIPOS>ATOM
   1 C1            -0.0062     1.0024     0.1186 C.3     
   2 C2             0.0870    -0.5214     0.2197 C.3     
   3 H3            -0.9164    -0.9460     0.2524 H       
   4 C4             0.8332    -1.0687    -0.9963 C.3     
   5 N5             1.2278    -2.4632    -0.8302 N.am    
   6 C6             1.7065    -2.9308     0.3474 C.2     
   7 O7             2.2197    -4.0299     0.4402 O.2     
   8 C8             1.5723    -2.0362     1.5087 C.2     
   9 C9             2.1036    -2.1194     2.7767 C.2     
  10 C10            1.6550    -0.9713     3.4732 C.2     
  11 C11            0.8814    -0.2517     2.6249 C.2     
  12 N12            0.8138    -0.8876     1.4399 N.pl3   
  13 C13            2.9689    -3.1932     3.3049 C.2     
  14 O14            3.2796    -4.1288     2.5934 O.2     
  15 N15            3.4142    -3.1359     4.5757 N.am    
  16 C16            4.1314    -4.2090     5.1144 C.ar    
  17 C17            3.8406    -5.5126     4.7342 C.ar    
  18 N18            4.5144    -6.5265     5.2397 N.ar    
  19 C19            5.4820    -6.3489     6.1177 C.ar    
  20 C20            5.8297    -5.0807     6.5453 C.ar    
  21 C21            5.1519    -3.9856     6.0359 C.ar    
  22 C22            5.5056    -2.5872     6.4723 C.3     
  23 C23            1.1084    -3.3396    -1.9142 C.ar    
  24 C24            0.3591    -4.5020    -1.7891 C.ar    
  25 C25            0.2422    -5.3664    -2.8603 C.ar    
  26 C26            0.8712    -5.0749    -4.0584 C.ar    
  27 F27            0.7551    -5.9216    -5.1048 F       
  28 C28            1.6198    -3.9153    -4.1860 C.ar    
  29 Cl29           2.4072    -3.5520    -5.6899 Cl      
  30 C30            1.7344    -3.0453    -3.1186 C.ar    
  31 H31            0.9973     1.4265     0.0859 H       
  32 H32           -0.5452     1.2740    -0.7891 H       
  33 H33           -0.5373     1.3924     0.9869 H       
  34 H34            0.1887    -0.9867    -1.8715 H       
  35 H35            1.7268    -0.4669    -1.1616 H       
  36 H36            1.8870    -0.7155     4.4965 H       
  37 H37            0.3952     0.6831     2.8618 H       
  38 H38            3.2373    -2.3505     5.1167 H       
  39 H39            3.0542    -5.6976     4.0173 H       
  40 H40            6.0101    -7.2061     6.5087 H       
  41 H41            6.6235    -4.9455     7.2650 H       
  42 H42            4.9120    -2.3181     7.3459 H       
  43 H43            6.5650    -2.5425     6.7251 H       
  44 H44            5.2958    -1.8895     5.6615 H       
  45 H45           -0.1317    -4.7304    -0.8546 H       
  46 H46           -0.3403    -6.2707    -2.7628 H       
  47 H47            2.3137    -2.1394    -3.2194 H       
@<TRIPOS>BOND
   1    1    2 1
   2    1   31 1
   3    1   32 1
   4    1   33 1
   5    2    3 1
   6    2   12 1
   7    2    4 1
   8    4    5 1
   9    4   34 1
  10    4   35 1
  11    5    6 am
  12    5   23 1
  13    6    7 2
  14    6    8 1
  15    8   12 1
  16    8    9 2
  17    9   10 1
  18    9   13 1
  19   10   11 2
  20   10   36 1
  21   11   12 1
  22   11   37 1
  23   13   14 2
  24   13   15 am
  25   15   16 1
  26   15   38 1
  27   16   21 ar
  28   16   17 ar
  29   17   18 ar
  30   17   39 1
  31   18   19 ar
  32   19   20 ar
  33   19   40 1
  34   20   21 ar
  35   20   41 1
  36   21   22 1
  37   22   42 1
  38   22   43 1
  39   22   44 1
  40   23   30 ar
  41   23   24 ar
  42   24   25 ar
  43   24   45 1
  44   25   26 ar
  45   25   46 1
  46   26   27 1
  47   26   28 ar
  48   28   29 1
  49   28   30 ar
  50   30   47 1

#	End of record

