#	Name: ASD01410450
#	Creating user name:	WinNT
#	Creation time:	15. 06. 2019 19:17

#	Modifying user name:	WinNT
#	Modification time:	15. 06. 2019 19:17

#	Program:	/corina/corina34_cracker 3.40 0067  02.08.2006

@<TRIPOS>MOLECULE
ASD01410450
  69   72    0    0    0
SMALL
NO_CHARGES


@<TRIPOS>ATOM
   1 C1             1.7619     4.3528    -0.7344 C.ar    
   2 C2             2.2153     4.1442    -2.0294 C.ar    
   3 C3             3.2911     3.3046    -2.2416 C.ar    
   4 N4             3.8885     2.7024    -1.2312 N.ar    
   5 C5             3.4855     2.8761     0.0169 C.ar    
   6 C6             2.4098     3.7066     0.3041 C.ar    
   7 C7             1.9546     3.9018     1.7274 C.3     
   8 F8             0.8631     4.7766     1.7520 F       
   9 F9             1.5764     2.6688     2.2693 F       
  10 F10            3.0017     4.4414     2.4821 F       
  11 C11            4.9346    -0.0006     0.9371 C.ar    
  12 C12            5.1128     1.3571     0.6993 C.ar    
  13 O13            4.1290     2.2370     1.0258 O.3     
  14 C14            5.9269    -0.9023     0.6099 C.ar    
  15 C15            7.1119    -0.4581     0.0399 C.ar    
  16 C16            7.2980     0.9114    -0.2029 C.ar    
  17 C17            6.2876     1.8160     0.1320 C.ar    
  18 C18            8.5531     1.3929    -0.8073 C.2     
  19 O19            9.4086     0.5988    -1.1449 O.2     
  20 O20            8.7518     2.7137    -0.9857 O.3     
  21 N21            8.1140    -1.3694    -0.2900 N.am    
  22 C22            8.2343    -1.8089    -1.5584 C.2     
  23 C23            9.0364    -1.8492     0.7421 C.3     
  24 O24            7.5168    -1.3591    -2.4266 O.2     
  25 C25            9.2602    -2.8593    -1.8978 C.3     
  26 C26            9.3916    -2.9714    -3.4180 C.3     
  27 C27           10.4332    -4.0379    -3.7625 C.3     
  28 C28            9.9924    -5.3857    -3.1879 C.3     
  29 C29            9.8610    -5.2735    -1.6677 C.3     
  30 C30            8.8194    -4.2071    -1.3232 C.3     
  31 C31           11.0340    -6.4521    -3.5325 C.3     
  32 C32            9.8519    -0.6731     1.2864 C.3     
  33 C33           10.7696    -1.1698     2.4059 C.3     
  34 N34            9.9598    -1.7644     3.4768 N.3     
  35 C35            9.2040    -2.9251     2.9889 C.3     
  36 C36            8.2395    -2.4808     1.8869 C.3     
  37 C37           10.7955    -2.1270     4.6292 C.3     
  38 H38            0.9254     5.0080    -0.5409 H       
  39 H39            1.7319     4.6330    -2.8624 H       
  40 H40            3.6476     3.1387    -3.2475 H       
  41 H41            4.0164    -0.3514     1.3845 H       
  42 H42            5.7812    -1.9557     0.7981 H       
  43 H43            6.4234     2.8715    -0.0521 H       
  44 H44            9.5903     2.9814    -1.3860 H       
  45 H45            9.7093    -2.5913     0.3126 H       
  46 H46           10.2225    -2.5790    -1.4695 H       
  47 H47            8.4292    -3.2517    -3.8462 H       
  48 H48            9.7056    -2.0113    -3.8273 H       
  49 H49           10.5268    -4.1178    -4.8456 H       
  50 H50           11.3956    -3.7576    -3.3343 H       
  51 H51            9.0301    -5.6660    -3.6162 H       
  52 H52            9.5470    -6.2337    -1.2584 H       
  53 H53           10.8234    -4.9932    -1.2395 H       
  54 H54            8.7258    -4.1272    -0.2401 H       
  55 H55            7.8570    -4.4874    -1.7514 H       
  56 H56           11.9964    -6.1718    -3.1043 H       
  57 H57           10.7200    -7.4123    -3.1232 H       
  58 H58           11.1277    -6.5320    -4.6155 H       
  59 H59           10.4542    -0.2459     0.4847 H       
  60 H60            9.1767     0.0869     1.6797 H       
  61 H61           11.4537    -1.9197     2.0088 H       
  62 H62           11.3413    -0.3321     2.8053 H       
  63 H63            9.8954    -3.6668     2.5891 H       
  64 H64            8.6386    -3.3623     3.8119 H       
  65 H65            7.5389    -1.7493     2.2896 H       
  66 H66            7.6898    -3.3451     1.5142 H       
  67 H67           11.2867    -1.2346     5.0170 H       
  68 H68           10.1708    -2.5651     5.4076 H       
  69 H69           11.5492    -2.8505     4.3182 H       
@<TRIPOS>BOND
   1    1    2 ar
   2    1    6 ar
   3    1   38 1
   4    2    3 ar
   5    2   39 1
   6    3    4 ar
   7    3   40 1
   8    4    5 ar
   9    5    6 ar
  10    5   13 1
  11    6    7 1
  12    7    8 1
  13    7    9 1
  14    7   10 1
  15   11   12 ar
  16   11   14 ar
  17   11   41 1
  18   12   13 1
  19   12   17 ar
  20   14   15 ar
  21   14   42 1
  22   15   16 ar
  23   15   21 1
  24   16   17 ar
  25   16   18 1
  26   17   43 1
  27   18   19 2
  28   18   20 1
  29   20   44 1
  30   21   22 am
  31   21   23 1
  32   22   24 2
  33   22   25 1
  34   23   32 1
  35   23   36 1
  36   23   45 1
  37   25   26 1
  38   25   30 1
  39   25   46 1
  40   26   27 1
  41   26   47 1
  42   26   48 1
  43   27   28 1
  44   27   49 1
  45   27   50 1
  46   28   29 1
  47   28   31 1
  48   28   51 1
  49   29   30 1
  50   29   52 1
  51   29   53 1
  52   30   54 1
  53   30   55 1
  54   31   56 1
  55   31   57 1
  56   31   58 1
  57   32   33 1
  58   32   59 1
  59   32   60 1
  60   33   34 1
  61   33   61 1
  62   33   62 1
  63   34   35 1
  64   34   37 1
  65   35   36 1
  66   35   63 1
  67   35   64 1
  68   36   65 1
  69   36   66 1
  70   37   67 1
  71   37   68 1
  72   37   69 1

#	End of record

