#	Name: ASD01911817
#	Creating user name:	WinNT
#	Creation time:	15. 06. 2019 19:58

#	Modifying user name:	WinNT
#	Modification time:	15. 06. 2019 19:58

#	Program:	/corina/corina34_cracker 3.40 0067  02.08.2006

@<TRIPOS>MOLECULE
ASD01911817
  62   65    0    0    0
SMALL
NO_CHARGES


@<TRIPOS>ATOM
   1 C1             0.1406     0.8415    -1.0303 C.2     
   2 N2             0.0453    -0.3367    -0.3358 N.pl3   
   3 C3             1.2095    -1.0238    -0.0133 C.2     
   4 C4             2.4521    -0.4739    -0.4180 C.2     
   5 C5             2.4492     0.6972    -1.1012 C.2     
   6 N6             1.2960     1.3191    -1.3873 N.2     
   7 C7             0.8730    -2.1532     0.6689 C.2     
   8 C8            -0.5408    -2.1753     0.7774 C.2     
   9 C9            -1.0192    -1.0340     0.1433 C.2     
  10 C10           -1.3483    -3.2098     1.4360 C.2     
  11 O11           -2.5610    -3.1114     1.4601 O.2     
  12 N12           -0.7464    -4.2682     2.0139 N.am    
  13 N13           -2.3499    -0.6701     0.0213 N.pl3   
  14 C14           -2.8408     0.4330     0.7270 C.ar    
  15 C15           -4.1916     0.7600     0.6585 C.ar    
  16 C16           -4.6726     1.8512     1.3576 C.ar    
  17 C17           -3.8119     2.6173     2.1239 C.ar    
  18 C18           -2.4690     2.2941     2.1934 C.ar    
  19 C19           -1.9825     1.2011     1.5021 C.ar    
  20 I20           -4.5447     4.2711     3.1808 I       
  21 F21           -5.0315     0.0124    -0.0904 F       
  22 O22           -1.5252    -5.2658     2.6491 O.3     
  23 C23           -0.7572    -6.3280     3.2181 C.3     
  24 C24           -1.5480    -6.9756     4.3570 C.3     
  25 C25           -0.4592    -7.3748     2.1421 C.3     
  26 C26            0.3934    -8.4946     2.7470 C.3     
  27 N27           -0.2950    -9.0258     3.9314 N.am    
  28 C28           -0.7079    -8.0909     4.9871 C.3     
  29 C29           -0.5433   -10.3454     4.0471 C.2     
  30 O30           -0.1972   -11.1082     3.1669 O.2     
  31 O31           -1.1750   -10.8184     5.1380 O.3     
  32 C32           -1.4091   -12.2503     5.1951 C.3     
  33 C33           -0.0700   -12.9885     5.1431 C.3     
  34 C34           -2.1324   -12.5972     6.4980 C.3     
  35 C35           -2.2717   -12.6739     4.0046 C.3     
  36 H36           -0.7593     1.3797    -1.2889 H       
  37 H37            3.3798    -0.9762    -0.1870 H       
  38 H38            3.3849     1.1334    -1.4184 H       
  39 H39            1.5563    -2.8948     1.0557 H       
  40 H40            0.2202    -4.3465     1.9947 H       
  41 H41           -2.9415    -1.1803    -0.5537 H       
  42 H42           -5.7207     2.1062     1.3054 H       
  43 H43           -1.8003     2.8946     2.7922 H       
  44 H44           -0.9344     0.9473     1.5609 H       
  45 H45            0.1802    -5.9304     3.6071 H       
  46 H46           -1.7801    -6.2243     5.1119 H       
  47 H47           -2.4741    -7.3954     3.9642 H       
  48 H48           -1.3955    -7.7908     1.7701 H       
  49 H49            0.0838    -6.9076     1.3205 H       
  50 H50            0.5253    -9.2901     2.0137 H       
  51 H51            1.3660    -8.0973     3.0372 H       
  52 H52            0.1750    -7.6607     5.4599 H       
  53 H53           -1.3025    -8.6201     5.7317 H       
  54 H54            0.5445   -12.6866     5.9912 H       
  55 H55           -0.2458   -14.0633     5.1860 H       
  56 H56            0.4453   -12.7413     4.2149 H       
  57 H57           -3.0864   -12.0712     6.5351 H       
  58 H58           -2.3082   -13.6720     6.5409 H       
  59 H59           -1.5179   -12.2953     7.3462 H       
  60 H60           -1.7564   -12.4268     3.0764 H       
  61 H61           -2.4474   -13.7488     4.0475 H       
  62 H62           -3.2257   -12.1480     4.0417 H       
@<TRIPOS>BOND
   1    1    2 1
   2    1    6 2
   3    1   36 1
   4    2    3 1
   5    2    9 1
   6    3    4 1
   7    3    7 2
   8    4    5 2
   9    4   37 1
  10    5    6 1
  11    5   38 1
  12    7    8 1
  13    7   39 1
  14    8    9 2
  15    8   10 1
  16    9   13 1
  17   10   11 2
  18   10   12 am
  19   12   22 1
  20   12   40 1
  21   13   14 1
  22   13   41 1
  23   14   15 ar
  24   14   19 ar
  25   15   16 ar
  26   15   21 1
  27   16   17 ar
  28   16   42 1
  29   17   18 ar
  30   17   20 1
  31   18   19 ar
  32   18   43 1
  33   19   44 1
  34   22   23 1
  35   23   24 1
  36   23   25 1
  37   23   45 1
  38   24   28 1
  39   24   46 1
  40   24   47 1
  41   25   26 1
  42   25   48 1
  43   25   49 1
  44   26   27 1
  45   26   50 1
  46   26   51 1
  47   27   28 1
  48   27   29 am
  49   28   52 1
  50   28   53 1
  51   29   30 2
  52   29   31 1
  53   31   32 1
  54   32   33 1
  55   32   34 1
  56   32   35 1
  57   33   54 1
  58   33   55 1
  59   33   56 1
  60   34   57 1
  61   34   58 1
  62   34   59 1
  63   35   60 1
  64   35   61 1
  65   35   62 1

#	End of record

