#	Name: ASD01410048
#	Creating user name:	WinNT
#	Creation time:	15. 06. 2019 19:16

#	Modifying user name:	WinNT
#	Modification time:	15. 06. 2019 19:16

#	Program:	/corina/corina34_cracker 3.40 0067  02.08.2006

@<TRIPOS>MOLECULE
ASD01410048
  39   40    0    0    0
SMALL
NO_CHARGES


@<TRIPOS>ATOM
   1 C1             0.4028     1.0907    -0.0900 C.ar    
   2 C2             0.1450    -0.2604    -0.0388 C.ar    
   3 C3            -1.1788    -0.7180    -0.0015 C.ar    
   4 C4            -2.2350     0.2113    -0.0167 C.ar    
   5 C5            -1.9535     1.5703    -0.0686 C.ar    
   6 C6            -0.6433     2.0053    -0.0995 C.ar    
   7 N7            -3.5508    -0.2276     0.0193 N.pl3   
   8 C8            -4.6440     0.7424     0.1211 C.3     
   9 C9            -5.9625     0.0129     0.1417 C.2     
  10 N10           -7.1148     0.7062     0.2312 N.am    
  11 C11           -8.3356     0.0436     0.1308 C.ar    
  12 C12           -8.4218    -1.1596    -0.5559 C.ar    
  13 C13           -9.6330    -1.8148    -0.6544 C.ar    
  14 C14          -10.7697    -1.2791    -0.0712 C.ar    
  15 C15          -10.7037    -0.0855     0.6146 C.ar    
  16 C16           -9.4839     0.5862     0.7282 C.ar    
  17 C17           -9.4059     1.8629     1.4606 C.2     
  18 O18          -10.4893     2.3360     2.1073 O.3     
  19 O19           -8.3646     2.4888     1.4813 O.2     
  20 O20           -5.9866    -1.1979     0.0777 O.2     
  21 C21           -1.4615    -2.1552     0.0526 C.2     
  22 Cl22           2.0437     1.6555    -0.1356 Cl      
  23 C23           -0.3342    -3.1494    -0.0563 C.3     
  24 O24           -2.6029    -2.5444     0.1850 O.2     
  25 Cl25          -0.3009     3.7060    -0.1642 Cl      
  26 H26            0.9619    -0.9668    -0.0278 H       
  27 H27           -2.7605     2.2881    -0.0805 H       
  28 H28           -3.7468    -1.1766    -0.0228 H       
  29 H29           -4.5335     1.3193     1.0393 H       
  30 H30           -4.6141     1.4148    -0.7363 H       
  31 H31           -7.0939     1.6666     0.3657 H       
  32 H32           -7.5404    -1.5836    -1.0140 H       
  33 H33           -9.6949    -2.7507    -1.1897 H       
  34 H34          -11.7125    -1.7992    -0.1547 H       
  35 H35          -11.5928     0.3281     1.0671 H       
  36 H36          -10.3897     3.1772     2.5736 H       
  37 H37            0.6102    -2.6170    -0.1692 H       
  38 H38           -0.3009    -3.7611     0.8452 H       
  39 H39           -0.4965    -3.7892    -0.9237 H       
@<TRIPOS>BOND
   1    1    2 ar
   2    1   22 1
   3    1    6 ar
   4    2    3 ar
   5    2   26 1
   6    3    4 ar
   7    3   21 1
   8    4    5 ar
   9    4    7 1
  10    5    6 ar
  11    5   27 1
  12    6   25 1
  13    7    8 1
  14    7   28 1
  15    8    9 1
  16    8   29 1
  17    8   30 1
  18    9   10 am
  19    9   20 2
  20   10   11 1
  21   10   31 1
  22   11   12 ar
  23   11   16 ar
  24   12   13 ar
  25   12   32 1
  26   13   14 ar
  27   13   33 1
  28   14   15 ar
  29   14   34 1
  30   15   16 ar
  31   15   35 1
  32   16   17 1
  33   17   18 1
  34   17   19 2
  35   18   36 1
  36   21   23 1
  37   21   24 2
  38   23   37 1
  39   23   38 1
  40   23   39 1

#	End of record

