#	Name: ASD04590627
#	Creating user name:	WinNT
#	Creation time:	15. 06. 2019 20:51

#	Modifying user name:	WinNT
#	Modification time:	15. 06. 2019 20:51

#	Program:	/corina/corina34_cracker 3.40 0067  02.08.2006

@<TRIPOS>MOLECULE
ASD04590627
  59   64    0    0    0
SMALL
NO_CHARGES


@<TRIPOS>ATOM
   1 N1            -0.0171     1.3231    -0.0119 N.ar    
   2 C2             0.0017    -0.0035    -0.0051 C.ar    
   3 N3             1.1297    -0.6949    -0.0122 N.ar    
   4 C4             2.3049    -0.0729    -0.0266 C.ar    
   5 C5             2.3189     1.3365    -0.0341 C.ar    
   6 C6             1.1072     2.0202    -0.0262 C.ar    
   7 N7             3.6030    -0.5196    -0.0370 N.pl3   
   8 C8             4.4822     0.5494    -0.0512 C.ar    
   9 C9             3.7312     1.7384    -0.0500 C.ar    
  10 C10            5.8680     0.6416    -0.0662 C.ar    
  11 N11            6.4612     1.8178    -0.0785 N.ar    
  12 C12            5.7850     2.9530    -0.0778 C.ar    
  13 C13            4.4064     2.9583    -0.0626 C.ar    
  14 N14           -1.2023    -0.6889     0.0103 N.pl3   
  15 C15           -2.3999     0.0104     0.1310 C.ar    
  16 C16            4.0016    -1.9293    -0.0328 C.3     
  17 C17            3.4009    -2.6447     1.1949 C.3     
  18 C18            3.4375    -2.6403    -1.2754 C.3     
  19 C19            2.5137    -3.7629    -0.7595 C.3     
  20 C20            2.1012    -3.2940     0.6580 C.3     
  21 N21           -2.3780     1.3188     0.3317 N.ar    
  22 C22           -3.4900     2.0191     0.4517 C.ar    
  23 C23           -4.7245     1.4066     0.3713 C.ar    
  24 C24           -4.7911     0.0355     0.1615 C.ar    
  25 C25           -3.6087    -0.6709     0.0341 C.ar    
  26 C26           -5.9871     2.2176     0.5104 C.3     
  27 N27           -6.4128     2.6918    -0.8132 N.3     
  28 C28           -7.7581     3.2815    -0.7539 C.3     
  29 C29           -8.1370     3.8151    -2.1380 C.3     
  30 O30           -8.0529     2.7531    -3.0922 O.3     
  31 C31           -6.7560     2.1563    -3.1765 C.3     
  32 C32           -6.3631     1.6059    -1.8029 C.3     
  33 H33            1.0848     3.0999    -0.0316 H       
  34 H34            6.4644    -0.2588    -0.0674 H       
  35 H35            6.3204     3.8910    -0.0883 H       
  36 H36            3.8597     3.8897    -0.0626 H       
  37 H37           -1.2107    -1.6561    -0.0630 H       
  38 H38            5.0885    -2.0097    -0.0180 H       
  39 H39            4.0850    -3.4090     1.5636 H       
  40 H40            3.1715    -1.9254     1.9811 H       
  41 H41            2.8671    -1.9365    -1.8816 H       
  42 H42            4.2506    -3.0664    -1.8631 H       
  43 H43            1.6367    -3.8596    -1.3995 H       
  44 H44            3.0545    -4.7078    -0.7064 H       
  45 H45            1.8097    -4.1430     1.2761 H       
  46 H46            1.2969    -2.5603     0.6033 H       
  47 H47           -3.4334     3.0852     0.6151 H       
  48 H48           -5.7446    -0.4672     0.0949 H       
  49 H49           -3.6237    -1.7383    -0.1299 H       
  50 H50           -6.7715     1.5972     0.9437 H       
  51 H51           -5.7999     3.0728     1.1599 H       
  52 H52           -8.4760     2.5204    -0.4482 H       
  53 H53           -7.7655     4.0998    -0.0339 H       
  54 H54           -9.1558     4.2018    -2.1126 H       
  55 H55           -7.4509     4.6135    -2.4206 H       
  56 H56           -6.7760     1.3432    -3.9022 H       
  57 H57           -6.0297     2.9065    -3.4893 H       
  58 H58           -5.3521     1.2010    -1.8486 H       
  59 H59           -7.0587     0.8180    -1.5140 H       
@<TRIPOS>BOND
   1    1    2 ar
   2    1    6 ar
   3    2    3 ar
   4    2   14 1
   5    3    4 ar
   6    4    5 ar
   7    4    7 1
   8    5    6 ar
   9    5    9 1
  10    6   33 1
  11    7    8 1
  12    7   16 1
  13    8    9 ar
  14    8   10 ar
  15    9   13 ar
  16   10   11 ar
  17   10   34 1
  18   11   12 ar
  19   12   13 ar
  20   12   35 1
  21   13   36 1
  22   14   15 1
  23   14   37 1
  24   15   21 ar
  25   15   25 ar
  26   16   18 1
  27   16   17 1
  28   16   38 1
  29   17   20 1
  30   17   39 1
  31   17   40 1
  32   18   19 1
  33   18   41 1
  34   18   42 1
  35   19   20 1
  36   19   43 1
  37   19   44 1
  38   20   45 1
  39   20   46 1
  40   21   22 ar
  41   22   23 ar
  42   22   47 1
  43   23   24 ar
  44   23   26 1
  45   24   25 ar
  46   24   48 1
  47   25   49 1
  48   26   27 1
  49   26   50 1
  50   26   51 1
  51   27   28 1
  52   27   32 1
  53   28   29 1
  54   28   52 1
  55   28   53 1
  56   29   30 1
  57   29   54 1
  58   29   55 1
  59   30   31 1
  60   31   32 1
  61   31   56 1
  62   31   57 1
  63   32   58 1
  64   32   59 1

#	End of record

