#	Name: ASD01478004
#	Creating user name:	WinNT
#	Creation time:	15. 06. 2019 19:21

#	Modifying user name:	WinNT
#	Modification time:	15. 06. 2019 19:21

#	Program:	/corina/corina34_cracker 3.40 0067  02.08.2006

@<TRIPOS>MOLECULE
ASD01478004
  73   75    0    0    0
SMALL
NO_CHARGES


@<TRIPOS>ATOM
   1 C1             2.0251     0.1059     0.3309 C.3     
   2 C2             2.9773     2.1877    -0.3441 C.2     
   3 O3             3.1578     1.0134     0.2893 O.3     
   4 N4             3.9885     3.0755    -0.4189 N.am    
   5 O5             1.9026     2.4470    -0.8484 O.2     
   6 C6             3.1711     5.3638    -0.1417 C.3     
   7 C7             3.7921     4.3532    -1.1081 C.3     
   8 C8             5.1417     4.8804    -1.5996 C.3     
   9 C9             4.9233     6.1493    -2.4260 C.3     
  10 N10            6.1951     6.5716    -3.0179 N.am    
  11 S11            6.5869     6.1056    -4.5579 S.o2    
  12 C12            5.9685     7.3422    -5.6502 C.ar    
  13 C13            6.7636     8.4199    -5.9937 C.ar    
  14 C14            6.2811     9.3908    -6.8499 C.ar    
  15 C15            4.9975     9.2837    -7.3652 C.ar    
  16 C16            4.2016     8.2013    -7.0190 C.ar    
  17 C17            4.6909     7.2303    -6.1669 C.ar    
  18 O18            8.0039     6.1642    -4.6467 O.2     
  19 O19            5.8397     4.9263    -4.8227 O.2     
  20 C20            7.1204     7.4060    -2.2473 C.3     
  21 C21            6.4696     8.7615    -1.9641 C.3     
  22 C22            7.3716     9.5760    -1.0346 C.3     
  23 C23            6.2757     9.5189    -3.2792 C.3     
  24 O24            5.9733     5.1804    -0.4769 O.3     
  25 C25            2.5279    -1.3414     0.3684 C.3     
  26 O26            1.4098    -2.2172     0.5426 O.3     
  27 C27            0.6500    -1.9535     1.7246 C.3     
  28 O28            0.1638    -0.6096     1.6887 O.3     
  29 C29            1.1974     0.3753     1.5923 C.3     
  30 O30            4.5203    10.2376    -8.2073 O.3     
  31 C31            3.1901    10.0623    -8.6991 C.3     
  32 C32            1.7896     4.9038     0.2468 C.ar    
  33 C33            1.6170     4.0905     1.3512 C.ar    
  34 C34            0.3498     3.6685     1.7075 C.ar    
  35 C35           -0.7449     4.0603     0.9598 C.ar    
  36 C36           -0.5724     4.8744    -0.1440 C.ar    
  37 C37            0.6943     5.2999    -0.4978 C.ar    
  38 H38            1.4055     0.2544    -0.5535 H       
  39 H39            4.8464     2.8685    -0.0164 H       
  40 H40            3.7922     5.4423     0.7505 H       
  41 H41            3.1068     6.3379    -0.6265 H       
  42 H42            3.1268     4.2084    -1.9593 H       
  43 H43            5.6245     4.1231    -2.2173 H       
  44 H44            4.2030     5.9471    -3.2188 H       
  45 H45            4.5416     6.9413    -1.7817 H       
  46 H46            7.7627     8.5030    -5.5920 H       
  47 H47            6.9024    10.2326    -7.1176 H       
  48 H48            3.2020     8.1157    -7.4189 H       
  49 H49            4.0717     6.3875    -5.8971 H       
  50 H50            7.3561     6.9121    -1.3047 H       
  51 H51            8.0367     7.5552    -2.8184 H       
  52 H52            5.5015     8.6072    -1.4875 H       
  53 H53            8.3397     9.7303    -1.5112 H       
  54 H54            6.9079    10.5416    -0.8328 H       
  55 H55            7.5097     9.0364    -0.0977 H       
  56 H56            7.2445     9.6792    -3.7524 H       
  57 H57            5.6388     8.9354    -3.9441 H       
  58 H58            5.8058    10.4816    -3.0782 H       
  59 H59            5.6491     5.9098     0.0689 H       
  60 H60            3.0332    -1.5766    -0.5683 H       
  61 H61            3.2215    -1.4653     1.2001 H       
  62 H62           -0.1924    -2.6434     1.7765 H       
  63 H63            1.2837    -2.0874     2.6013 H       
  64 H64            1.8406     0.3164     2.4703 H       
  65 H65            0.7511     1.3678     1.5308 H       
  66 H66            2.9344    10.8916    -9.3587 H       
  67 H67            3.1280     9.1254    -9.2527 H       
  68 H68            2.4934    10.0362    -7.8613 H       
  69 H69            2.4722     3.7844     1.9353 H       
  70 H70            0.2150     3.0325     2.5699 H       
  71 H71           -1.7349     3.7301     1.2378 H       
  72 H72           -1.4276     5.1802    -0.7284 H       
  73 H73            0.8287     5.9390    -1.3580 H       
@<TRIPOS>BOND
   1    1   25 1
   2    1    3 1
   3    1   29 1
   4    1   38 1
   5    2    3 1
   6    2    4 am
   7    2    5 2
   8    4    7 1
   9    4   39 1
  10    6    7 1
  11    6   32 1
  12    6   40 1
  13    6   41 1
  14    7    8 1
  15    7   42 1
  16    8    9 1
  17    8   24 1
  18    8   43 1
  19    9   10 1
  20    9   44 1
  21    9   45 1
  22   10   11 am
  23   10   20 1
  24   11   12 1
  25   11   18 2
  26   11   19 2
  27   12   13 ar
  28   12   17 ar
  29   13   14 ar
  30   13   46 1
  31   14   15 ar
  32   14   47 1
  33   15   16 ar
  34   15   30 1
  35   16   17 ar
  36   16   48 1
  37   17   49 1
  38   20   21 1
  39   20   50 1
  40   20   51 1
  41   21   22 1
  42   21   23 1
  43   21   52 1
  44   22   53 1
  45   22   54 1
  46   22   55 1
  47   23   56 1
  48   23   57 1
  49   23   58 1
  50   24   59 1
  51   25   26 1
  52   25   60 1
  53   25   61 1
  54   26   27 1
  55   27   28 1
  56   27   62 1
  57   27   63 1
  58   28   29 1
  59   29   64 1
  60   29   65 1
  61   30   31 1
  62   31   66 1
  63   31   67 1
  64   31   68 1
  65   32   33 ar
  66   32   37 ar
  67   33   34 ar
  68   33   69 1
  69   34   35 ar
  70   34   70 1
  71   35   36 ar
  72   35   71 1
  73   36   37 ar
  74   36   72 1
  75   37   73 1

#	End of record

