#	Name: ASD00843470
#	Creating user name:	WinNT
#	Creation time:	15. 06. 2019 18:46

#	Modifying user name:	WinNT
#	Modification time:	15. 06. 2019 18:46

#	Program:	/corina/corina34_cracker 3.40 0067  02.08.2006

@<TRIPOS>MOLECULE
ASD00843470
  91   96    0    0    0
SMALL
NO_CHARGES


@<TRIPOS>ATOM
   1 F1             5.7279    -2.5020    -1.8937 F       
   2 N2             0.9634     1.0826    -0.2155 N.ar    
   3 C3             1.1256    -0.1968    -0.5084 C.ar    
   4 C4             0.9573    -1.1728     0.4658 C.ar    
   5 C5             0.6167    -0.7894     1.7510 C.ar    
   6 C6             0.4557     0.5635     2.0177 C.ar    
   7 C7             0.6388     1.4788     1.0006 C.ar    
   8 C8             1.1427    -2.6295     0.1273 C.3     
   9 C9             0.7671    -3.5002     1.3074 C.2     
  10 C10            0.3103    -3.0032    -1.1009 C.3     
  11 C11           -1.1303    -2.6295    -0.8639 C.2     
  12 N12           -2.0712    -2.9653    -1.7686 N.am    
  13 O13           -1.4431    -2.0267     0.1410 O.2     
  14 C14           -3.4596    -2.5122    -1.6081 C.3     
  15 C15           -4.3861    -3.7306    -1.6703 C.3     
  16 C16           -4.1223    -4.5014    -2.9658 C.3     
  17 C17           -2.6738    -4.9949    -2.9818 C.3     
  18 C18           -1.7266    -3.7862    -2.9374 C.3     
  19 C19           -5.0700    -5.6998    -3.0478 C.3     
  20 C20           -6.5199    -5.2075    -3.0336 C.3     
  21 C21           -7.4616    -6.4053    -3.1772 C.3     
  22 N22           -7.1760    -7.1060    -4.4357 N.3     
  23 C23           -5.8039    -7.6289    -4.4528 C.3     
  24 C24           -4.8127    -6.4677    -4.3473 C.3     
  25 C25           -8.1511    -8.1785    -4.6741 C.3     
  26 O26           -0.3237    -3.5693     1.8332 O.2     
  27 N27            1.8688    -4.1824     1.6625 N.am    
  28 C28            2.6040    -2.9370    -0.1064 C.ar    
  29 C29            2.9644    -3.8751     0.8529 C.ar    
  30 C30            3.5217    -2.4769    -1.0236 C.ar    
  31 C31            4.8237    -2.9510    -0.9958 C.ar    
  32 C32            5.1949    -3.8867    -0.0437 C.ar    
  33 C33            4.2744    -4.3482     0.8762 C.ar    
  34 Cl34           6.8253    -4.4819    -0.0072 Cl      
  35 C35            1.5090    -6.8448     2.2596 C.ar    
  36 C36            2.5052    -7.6720     1.7747 C.ar    
  37 C37            0.1902    -7.2593     2.2352 C.ar    
  38 C38           -0.1353    -8.5015     1.7260 C.ar    
  39 C39            0.8624    -9.3334     1.2388 C.ar    
  40 C40            2.1848    -8.9150     1.2641 C.ar    
  41 O41            0.5447   -10.5561     0.7378 O.3     
  42 H42            3.5346    -7.3460     1.7949 H       
  43 C43            1.6232   -11.3589     0.2537 C.3     
  44 C44           -7.9789    -8.7177    -6.0955 C.3     
  45 O45            1.4591    -0.5597    -1.7725 O.3     
  46 C46            1.5712     0.4864    -2.7395 C.3     
  47 C47            2.0525    -0.0977    -4.0692 C.3     
  48 F48            3.2594    -0.7768    -3.8707 F       
  49 F49            1.0923    -0.9878    -4.5623 F       
  50 S50            1.9217    -5.2628     2.9164 S.o2    
  51 O51            3.2811    -5.3393     3.3231 O.2     
  52 O52            0.8657    -4.9064     3.7979 O.2     
  53 H53            0.4790    -1.5259     2.5289 H       
  54 H54            0.1898     0.8963     3.0101 H       
  55 H55            0.5150     2.5324     1.2029 H       
  56 H56            0.6863    -2.4663    -1.9717 H       
  57 H57            0.3831    -4.0765    -1.2763 H       
  58 H58           -3.5728    -2.0158    -0.6443 H       
  59 H59           -3.7129    -1.8192    -2.4104 H       
  60 H60           -4.1928    -4.3787    -0.8155 H       
  61 H61           -5.4244    -3.3995    -1.6490 H       
  62 H62           -4.2920    -3.8455    -3.8196 H       
  63 H63           -2.4966    -5.6311    -2.1146 H       
  64 H64           -2.4933    -5.5638    -3.8939 H       
  65 H65           -1.8400    -3.1995    -3.8490 H       
  66 H66           -0.6968    -4.1321    -2.8487 H       
  67 H67           -4.9003    -6.3575    -2.1953 H       
  68 H68           -6.7216    -4.6968    -2.0920 H       
  69 H69           -6.6784    -4.5185    -3.8632 H       
  70 H70           -7.3122    -7.0871    -2.3399 H       
  71 H71           -8.4943    -6.0568    -3.1818 H       
  72 H72           -5.6623    -8.3049    -3.6096 H       
  73 H73           -5.6327    -8.1691    -5.3839 H       
  74 H74           -4.9443    -5.7985    -5.1976 H       
  75 H75           -3.7947    -6.8573    -4.3443 H       
  76 H76           -7.9879    -8.9837    -3.9578 H       
  77 H77           -9.1605    -7.7850    -4.5546 H       
  78 H78            3.2274    -1.7478    -1.7640 H       
  79 H79            4.5707    -5.0776     1.6155 H       
  80 H80           -0.5861    -6.6115     2.6149 H       
  81 H81           -1.1656    -8.8250     1.7075 H       
  82 H82            2.9634    -9.5609     0.8857 H       
  83 H83            1.2326   -12.3066    -0.1172 H       
  84 H84            2.1322   -10.8343    -0.5548 H       
  85 H85            2.3273   -11.5483     1.0639 H       
  86 H86           -8.7024    -9.5135    -6.2724 H       
  87 H87           -8.1421    -7.9125    -6.8118 H       
  88 H88           -6.9694    -9.1113    -6.2150 H       
  89 H89            0.5981     0.9569    -2.8803 H       
  90 H90            2.2870     1.2300    -2.3891 H       
  91 H91            2.2030     0.7086    -4.7870 H       
@<TRIPOS>BOND
   1    1   31 1
   2    2    3 ar
   3    2    7 ar
   4    3    4 ar
   5    3   45 1
   6    4    5 ar
   7    4    8 1
   8    5    6 ar
   9    5   53 1
  10    6    7 ar
  11    6   54 1
  12    7   55 1
  13    8    9 1
  14    8   10 1
  15    8   28 1
  16    9   26 2
  17    9   27 am
  18   10   11 1
  19   10   56 1
  20   10   57 1
  21   11   12 am
  22   11   13 2
  23   12   14 1
  24   12   18 1
  25   14   15 1
  26   14   58 1
  27   14   59 1
  28   15   16 1
  29   15   60 1
  30   15   61 1
  31   16   17 1
  32   16   19 1
  33   16   62 1
  34   17   18 1
  35   17   63 1
  36   17   64 1
  37   18   65 1
  38   18   66 1
  39   19   20 1
  40   19   24 1
  41   19   67 1
  42   20   21 1
  43   20   68 1
  44   20   69 1
  45   21   22 1
  46   21   70 1
  47   21   71 1
  48   22   23 1
  49   22   25 1
  50   23   24 1
  51   23   72 1
  52   23   73 1
  53   24   74 1
  54   24   75 1
  55   25   44 1
  56   25   76 1
  57   25   77 1
  58   27   50 am
  59   27   29 1
  60   28   29 ar
  61   28   30 ar
  62   29   33 ar
  63   30   31 ar
  64   30   78 1
  65   31   32 ar
  66   32   33 ar
  67   32   34 1
  68   33   79 1
  69   35   36 ar
  70   35   37 ar
  71   35   50 1
  72   36   42 1
  73   36   40 ar
  74   37   38 ar
  75   37   80 1
  76   38   39 ar
  77   38   81 1
  78   39   40 ar
  79   39   41 1
  80   40   82 1
  81   41   43 1
  82   43   83 1
  83   43   84 1
  84   43   85 1
  85   44   86 1
  86   44   87 1
  87   44   88 1
  88   45   46 1
  89   46   47 1
  90   46   89 1
  91   46   90 1
  92   47   48 1
  93   47   49 1
  94   47   91 1
  95   50   51 2
  96   50   52 2

#	End of record

