#	Name: ASD00740012
#	Creating user name:	WinNT
#	Creation time:	15. 06. 2019 18:37

#	Modifying user name:	WinNT
#	Modification time:	15. 06. 2019 18:37

#	Program:	/corina/corina34_cracker 3.40 0067  02.08.2006

@<TRIPOS>MOLECULE
ASD00740012
  57   60    0    0    0
SMALL
NO_CHARGES


@<TRIPOS>ATOM
   1 O1            -0.0241     1.1165    -0.9763 O.3     
   2 O2             0.5274    -2.8011     0.0385 O.3     
   3 O3             3.5611     4.3570    -0.6410 O.3     
   4 O4            -4.1297    -3.7355     0.2216 O.3     
   5 C5             0.9961    -0.4683     0.3381 C.3     
   6 C6             0.1314    -0.2965    -0.9591 C.3     
   7 C7             1.8857     0.7116     0.2158 C.ar    
   8 C8             1.5768    -1.8590     0.2893 C.3     
   9 C9            -1.0590    -1.1553    -0.6893 C.ar    
  10 C10            1.1773     1.6320    -0.5874 C.ar    
  11 C11           -0.7566    -2.4197    -0.1620 C.ar    
  12 C12            1.7274     2.8729    -0.8845 C.ar    
  13 C13            3.1392     0.9961     0.7113 C.ar    
  14 C14           -1.8020    -3.2765     0.1463 C.ar    
  15 C15           -2.3538    -0.7736    -0.9207 C.ar    
  16 C16            2.9905     3.1531    -0.3727 C.ar    
  17 C17            3.6815     2.2369     0.4025 C.ar    
  18 C18            0.9847     3.8763    -1.7288 C.3     
  19 C19           -3.1117    -2.8880    -0.0822 C.ar    
  20 C20           -3.3917    -1.6393    -0.6196 C.ar    
  21 C21           -1.5124    -4.6348     0.7315 C.3     
  22 C22            0.1420     4.7546    -0.8404 C.2     
  23 C23           -1.4807    -4.5376     2.2350 C.2     
  24 C24           -1.1349     4.9062    -1.0905 C.2     
  25 C25           -2.2329    -5.3292     2.9586 C.2     
  26 C26           -1.7374     4.2972    -2.3303 C.3     
  27 C27           -2.0014     5.6896    -0.1383 C.3     
  28 C28           -3.2234    -6.2468     2.2892 C.3     
  29 C29           -2.1078    -5.3224     4.4604 C.3     
  30 H30            0.3635    -0.3633     1.2195 H       
  31 H31            0.6735    -0.6377    -1.8411 H       
  32 H32            2.0519    -2.0887     1.2430 H       
  33 H33            2.3162    -1.9167    -0.5095 H       
  34 H34            3.6787     0.2826     1.3164 H       
  35 H35           -2.5648     0.2005    -1.3367 H       
  36 H36            4.6628     2.4924     0.7742 H       
  37 H37            1.6997     4.4914    -2.2751 H       
  38 H38            0.3422     3.3515    -2.4358 H       
  39 H39           -4.4145    -1.3444    -0.8024 H       
  40 H40           -2.2917    -5.3343     0.4290 H       
  41 H41           -0.5467    -4.9879     0.3698 H       
  42 H42            0.5908     5.2592     0.0025 H       
  43 H43           -0.8378    -3.8153     2.7160 H       
  44 H44            3.3565     5.0429     0.0093 H       
  45 H45           -4.4652    -3.6398     1.1235 H       
  46 H46           -1.9986     3.2573    -2.1342 H       
  47 H47           -2.6343     4.8509    -2.6081 H       
  48 H48           -1.0152     4.3430    -3.1454 H       
  49 H49           -1.3948     6.0496     0.6926 H       
  50 H50           -2.4410     6.5386    -0.6618 H       
  51 H51           -2.7952     5.0472     0.2429 H       
  52 H52           -2.7211    -7.1662     1.9882 H       
  53 H53           -4.0277    -6.4834     2.9857 H       
  54 H54           -3.6377    -5.7544     1.4094 H       
  55 H55           -1.3470    -4.6010     4.7583 H       
  56 H56           -3.0644    -5.0455     4.9034 H       
  57 H57           -1.8215    -6.3159     4.8056 H       
@<TRIPOS>BOND
   1    1    6 1
   2    1   10 1
   3    2    8 1
   4    2   11 1
   5    3   16 1
   6    3   44 1
   7    4   19 1
   8    4   45 1
   9    5    6 1
  10    5    7 1
  11    5    8 1
  12    5   30 1
  13    6    9 1
  14    6   31 1
  15    7   10 ar
  16    7   13 ar
  17    8   32 1
  18    8   33 1
  19    9   11 ar
  20    9   15 ar
  21   10   12 ar
  22   11   14 ar
  23   12   16 ar
  24   12   18 1
  25   13   17 ar
  26   13   34 1
  27   14   19 ar
  28   14   21 1
  29   15   20 ar
  30   15   35 1
  31   16   17 ar
  32   17   36 1
  33   18   22 1
  34   18   37 1
  35   18   38 1
  36   19   20 ar
  37   20   39 1
  38   21   23 1
  39   21   40 1
  40   21   41 1
  41   22   24 2
  42   22   42 1
  43   23   25 2
  44   23   43 1
  45   24   26 1
  46   24   27 1
  47   25   28 1
  48   25   29 1
  49   26   46 1
  50   26   47 1
  51   26   48 1
  52   27   49 1
  53   27   50 1
  54   27   51 1
  55   28   52 1
  56   28   53 1
  57   28   54 1
  58   29   55 1
  59   29   56 1
  60   29   57 1

#	End of record

