#	Name: ASD01914135
#	Creating user name:	WinNT
#	Creation time:	15. 06. 2019 20:02

#	Modifying user name:	WinNT
#	Modification time:	15. 06. 2019 20:02

#	Program:	/corina/corina34_cracker 3.40 0067  02.08.2006

@<TRIPOS>MOLECULE
ASD01914135
  49   52    0    0    0
SMALL
NO_CHARGES


@<TRIPOS>ATOM
   1 C1             0.9285     1.6818     0.2299 C.ar    
   2 C2             0.7854     0.2092     0.2063 C.2     
   3 N3             1.7609    -0.6765     0.1220 N.2     
   4 C4             1.1599    -1.8763     0.1352 C.2     
   5 N5            -0.1215    -1.6737     0.2247 N.2     
   6 O6            -0.3606    -0.4855     0.2723 O.3     
   7 C7             1.8459    -3.2160     0.0596 C.3     
   8 C8             1.5209    -4.0279     1.3156 C.3     
   9 C9             2.2435    -5.3756     1.2550 C.3     
  10 C10            1.7534    -6.1587     0.0329 C.3     
  11 N11            1.9292    -5.3254    -1.1643 N.am    
  12 C12            1.3513    -3.9746    -1.1760 C.3     
  13 C13            0.2728    -6.5037     0.2048 C.3     
  14 C14            2.6078    -5.7912    -2.2316 C.2     
  15 C15            2.6661    -4.9952    -3.4747 C.ar    
  16 C16            3.8632    -4.8946    -4.1867 C.ar    
  17 C17            3.9122    -4.1505    -5.3460 C.ar    
  18 C18            2.7756    -3.5027    -5.8054 C.ar    
  19 C19            1.5846    -3.5989    -5.1021 C.ar    
  20 C20            1.5230    -4.3454    -3.9450 C.ar    
  21 O21            3.1718    -6.8665    -2.1713 O.2     
  22 N22            2.1372     2.2271     0.1623 N.ar    
  23 C23            2.3074     3.5321     0.1799 C.ar    
  24 C24            1.2242     4.3893     0.2707 C.ar    
  25 C25           -0.0567     3.8620     0.3435 C.ar    
  26 C26           -0.2074     2.4857     0.3172 C.ar    
  27 C27            1.4347     5.8814     0.2908 C.3     
  28 F28            2.8290    -2.7746    -6.9422 F       
  29 H29            2.9237    -3.0695    -0.0101 H       
  30 H30            1.8498    -3.4789     2.1980 H       
  31 H31            0.4453    -4.1947     1.3719 H       
  32 H32            3.3176    -5.2092     1.1737 H       
  33 H33            2.0303    -5.9437     2.1605 H       
  34 H34            2.3346    -7.0750    -0.0710 H       
  35 H35            0.2637    -4.0423    -1.1522 H       
  36 H36            1.6671    -3.4498    -2.0776 H       
  37 H37           -0.3055    -5.5849     0.3021 H       
  38 H38           -0.0739    -7.0608    -0.6656 H       
  39 H39            0.1429    -7.1113     1.1004 H       
  40 H40            4.7492    -5.3985    -3.8296 H       
  41 H41            4.8375    -4.0717    -5.8973 H       
  42 H42            0.7023    -3.0920    -5.4641 H       
  43 H43            0.5947    -4.4201    -3.3981 H       
  44 H44            3.3058     3.9398     0.1231 H       
  45 H45           -0.9175     4.5103     0.4149 H       
  46 H46           -1.1901     2.0411     0.3719 H       
  47 H47            1.4180     6.2645    -0.7296 H       
  48 H48            0.6399     6.3527     0.8689 H       
  49 H49            2.3985     6.1063     0.7475 H       
@<TRIPOS>BOND
   1    1    2 1
   2    1   22 ar
   3    1   26 ar
   4    2    3 2
   5    2    6 1
   6    3    4 1
   7    4    5 2
   8    4    7 1
   9    5    6 1
  10    7    8 1
  11    7   12 1
  12    7   29 1
  13    8    9 1
  14    8   30 1
  15    8   31 1
  16    9   10 1
  17    9   32 1
  18    9   33 1
  19   10   11 1
  20   10   13 1
  21   10   34 1
  22   11   12 1
  23   11   14 am
  24   12   35 1
  25   12   36 1
  26   13   37 1
  27   13   38 1
  28   13   39 1
  29   14   15 1
  30   14   21 2
  31   15   16 ar
  32   15   20 ar
  33   16   17 ar
  34   16   40 1
  35   17   18 ar
  36   17   41 1
  37   18   19 ar
  38   18   28 1
  39   19   20 ar
  40   19   42 1
  41   20   43 1
  42   22   23 ar
  43   23   24 ar
  44   23   44 1
  45   24   25 ar
  46   24   27 1
  47   25   26 ar
  48   25   45 1
  49   26   46 1
  50   27   47 1
  51   27   48 1
  52   27   49 1

#	End of record

