#	Name: ASD01040016
#	Creating user name:	WinNT
#	Creation time:	15. 06. 2019 18:58

#	Modifying user name:	WinNT
#	Modification time:	15. 06. 2019 18:58

#	Program:	/corina/corina34_cracker 3.40 0067  02.08.2006

@<TRIPOS>MOLECULE
ASD01040016
  53   56    0    0    0
SMALL
NO_CHARGES


@<TRIPOS>ATOM
   1 C1             0.4874     1.2086     0.1418 C.3     
   2 C2            -0.0099     1.4785    -1.2550 C.2     
   3 C3             0.9342     1.4888    -2.3825 C.ar    
   4 C4             0.8505     0.5091    -3.3778 C.ar    
   5 C5             1.7376     0.5223    -4.4342 C.ar    
   6 C6             2.7111     1.5006    -4.5142 C.ar    
   7 C7             2.8043     2.4796    -3.5303 C.ar    
   8 N8             3.7909     3.4652    -3.6170 N.pl3   
   9 C9             4.2496     4.0992    -2.4580 C.ar    
  10 C10            4.3013     3.4020    -1.2578 C.ar    
  11 C11            4.7547     4.0302    -0.1144 C.ar    
  12 C12            5.1576     5.3540    -0.1640 C.ar    
  13 F13            5.6012     5.9664     0.9556 F       
  14 C14            5.1070     6.0511    -1.3594 C.ar    
  15 C15            4.6597     5.4254    -2.5065 C.ar    
  16 C16            1.9153     2.4810    -2.4673 C.ar    
  17 C17           -1.3279     1.7118    -1.4721 C.2     
  18 C18           -2.2956     1.5786    -0.3610 C.ar    
  19 C19           -2.9883     2.6987     0.1017 C.ar    
  20 C20           -3.8895     2.5704     1.1368 C.ar    
  21 C21           -4.1086     1.3289     1.7193 C.ar    
  22 O22           -4.9976     1.2064     2.7393 O.3     
  23 C23           -3.4217     0.2121     1.2614 C.ar    
  24 C24           -2.5225     0.3314     0.2235 C.ar    
  25 C25           -1.7982     2.0996    -2.8201 C.ar    
  26 C26           -2.6326     1.2451    -3.5428 C.ar    
  27 C27           -3.0691     1.6101    -4.7982 C.ar    
  28 C28           -2.6798     2.8262    -5.3444 C.ar    
  29 O29           -3.1078     3.1802    -6.5842 O.3     
  30 C30           -1.8497     3.6791    -4.6285 C.ar    
  31 C31           -1.4134     3.3234    -3.3703 C.ar    
  32 H32            0.4521     0.1373     0.3394 H       
  33 H33            1.5142     1.5619     0.2365 H       
  34 H34           -0.1444     1.7315     0.8598 H       
  35 H35            0.0920    -0.2575    -3.3189 H       
  36 H36            1.6715    -0.2348    -5.2015 H       
  37 H37            3.4025     1.5046    -5.3439 H       
  38 H38            4.1575     3.7097    -4.4811 H       
  39 H39            3.9868     2.3695    -1.2186 H       
  40 H40            4.7947     3.4885     0.8191 H       
  41 H41            5.4218     7.0836    -1.3957 H       
  42 H42            4.6204     5.9694    -3.4386 H       
  43 H43            1.9860     3.2403    -1.7025 H       
  44 H44           -2.8182     3.6646    -0.3505 H       
  45 H45           -4.4256     3.4366     1.4956 H       
  46 H46           -5.9005     1.0120     2.4529 H       
  47 H47           -3.5948    -0.7518     1.7169 H       
  48 H48           -1.9917    -0.5383    -0.1347 H       
  49 H49           -2.9355     0.2991    -3.1189 H       
  50 H50           -3.7144     0.9494    -5.3581 H       
  51 H51           -2.5237     2.8923    -7.2991 H       
  52 H52           -1.5488     4.6238    -5.0567 H       
  53 H53           -0.7682     3.9873    -2.8141 H       
@<TRIPOS>BOND
   1    1   32 1
   2    1   33 1
   3    1   34 1
   4    1    2 1
   5    2   17 2
   6    2    3 1
   7    3    4 ar
   8    3   16 ar
   9    4   35 1
  10    4    5 ar
  11    5   36 1
  12    5    6 ar
  13    6    7 ar
  14    6   37 1
  15    7   16 ar
  16    7    8 1
  17    8   38 1
  18    8    9 1
  19    9   10 ar
  20    9   15 ar
  21   10   39 1
  22   10   11 ar
  23   11   40 1
  24   11   12 ar
  25   12   13 1
  26   12   14 ar
  27   14   15 ar
  28   14   41 1
  29   15   42 1
  30   16   43 1
  31   17   18 1
  32   17   25 1
  33   18   19 ar
  34   18   24 ar
  35   19   20 ar
  36   19   44 1
  37   20   45 1
  38   20   21 ar
  39   21   22 1
  40   21   23 ar
  41   22   46 1
  42   23   47 1
  43   23   24 ar
  44   24   48 1
  45   25   26 ar
  46   25   31 ar
  47   26   49 1
  48   26   27 ar
  49   27   50 1
  50   27   28 ar
  51   28   30 ar
  52   28   29 1
  53   29   51 1
  54   30   31 ar
  55   30   52 1
  56   31   53 1

#	End of record

