#	Name: ASD00100107
#	Creating user name:	WinNT
#	Creation time:	15. 06. 2019 18:30

#	Modifying user name:	WinNT
#	Modification time:	15. 06. 2019 18:30

#	Program:	/corina/corina34_cracker 3.40 0067  02.08.2006

@<TRIPOS>MOLECULE
ASD00100107
  43   45    0    0    0
SMALL
NO_CHARGES


@<TRIPOS>ATOM
   1 C1            -0.0184     1.5028     0.0103 C.2     
   2 C2             0.0021    -0.0041     0.0020 C.3     
   3 O3             1.0236     2.1234     0.0037 O.2     
   4 N4            -1.1946     2.1607     0.0195 N.am    
   5 C5            -1.2134     3.5493     0.0271 C.2     
   6 N6            -0.1593     4.3269     0.0259 N.2     
   7 C7            -0.5586     5.6167     0.0349 C.2     
   8 C8            -1.9154     5.6348     0.0421 C.2     
   9 N9            -2.3301     4.3271     0.0312 N.pl3   
  10 C10            0.3297     6.8047     0.0372 C.ar    
  11 C11            1.7140     6.6431     0.0291 C.ar    
  12 C12            2.5355     7.7521     0.0309 C.ar    
  13 C13            1.9875     9.0221     0.0406 C.ar    
  14 C14            0.6142     9.1885     0.0491 C.ar    
  15 C15           -0.2170     8.0868     0.0417 C.ar    
  16 C16           -3.7172     3.8556     0.0284 C.3     
  17 C17           -4.1531     3.5690     1.4422 C.ar    
  18 C18           -4.6432     4.5938     2.2390 C.ar    
  19 C19           -5.0437     4.3267     3.5399 C.ar    
  20 C20           -4.9536     3.0416     4.0391 C.ar    
  21 C21           -4.4645     2.0224     3.2434 C.ar    
  22 C22           -4.0704     2.2849     1.9441 C.ar    
  23 O23           -4.7304     5.8571     1.7458 O.3     
  24 C24           -5.2444     6.8618     2.6224 C.3     
  25 H25            1.0345    -0.3534    -0.0097 H       
  26 H26           -0.4983    -0.3791     0.8948 H       
  27 H27           -0.5153    -0.3696    -0.8850 H       
  28 H28           -2.0280     1.6644     0.0207 H       
  29 H29           -2.5474     6.5105     0.0506 H       
  30 H30            2.1429     5.6520     0.0219 H       
  31 H31            3.6084     7.6280     0.0249 H       
  32 H32            2.6341     9.8871     0.0419 H       
  33 H33            0.1917    10.1824     0.0570 H       
  34 H34           -1.2890     8.2178     0.0434 H       
  35 H35           -4.3608     4.6229    -0.4018 H       
  36 H36           -3.7902     2.9449    -0.5660 H       
  37 H37           -5.4252     5.1227     4.1621 H       
  38 H38           -5.2653     2.8331     5.0519 H       
  39 H39           -4.3942     1.0186     3.6357 H       
  40 H40           -3.6932     1.4860     1.3229 H       
  41 H41           -6.2567     6.5955     2.9263 H       
  42 H42           -4.6078     6.9349     3.5042 H       
  43 H43           -5.2607     7.8213     2.1055 H       
@<TRIPOS>BOND
   1    1    2 1
   2    1    3 2
   3    1    4 am
   4    2   25 1
   5    2   26 1
   6    2   27 1
   7    4    5 1
   8    4   28 1
   9    5    6 2
  10    5    9 1
  11    6    7 1
  12    7    8 2
  13    7   10 1
  14    8    9 1
  15    8   29 1
  16    9   16 1
  17   10   11 ar
  18   10   15 ar
  19   11   12 ar
  20   11   30 1
  21   12   13 ar
  22   12   31 1
  23   13   14 ar
  24   13   32 1
  25   14   15 ar
  26   14   33 1
  27   15   34 1
  28   16   17 1
  29   16   35 1
  30   16   36 1
  31   17   18 ar
  32   17   22 ar
  33   18   19 ar
  34   18   23 1
  35   19   20 ar
  36   19   37 1
  37   20   21 ar
  38   20   38 1
  39   21   22 ar
  40   21   39 1
  41   22   40 1
  42   23   24 1
  43   24   41 1
  44   24   42 1
  45   24   43 1

#	End of record

