#	Name: ASD07300607
#	Creating user name:	WinNT
#	Creation time:	15. 06. 2019 21:10

#	Modifying user name:	WinNT
#	Modification time:	15. 06. 2019 21:10

#	Program:	/corina/corina34_cracker 3.40 0067  02.08.2006

@<TRIPOS>MOLECULE
ASD07300607
  60   64    0    0    0
SMALL
NO_CHARGES


@<TRIPOS>ATOM
   1 C1            -0.0034     1.3929     0.2418 C.2     
   2 C2             0.0021    -0.0041     0.0020 C.2     
   3 N3             1.1915     2.0673     0.2268 N.pl3   
   4 N4             1.1441    -0.6203    -0.2281 N.2     
   5 C5             2.3028     0.0466    -0.2404 C.2     
   6 C6             2.3486     1.3753    -0.0180 C.2     
   7 N7            -0.9698     2.2587     0.5009 N.2     
   8 C8            -0.4502     3.4737     0.6498 C.2     
   9 C9             0.9151     3.3826     0.4827 C.2     
  10 N10           -1.1861    -0.7177     0.0100 N.pl3   
  11 C11           -2.4814    -0.0308     0.1360 C.3     
  12 C12           -3.4039    -0.5296    -0.9821 C.3     
  13 O13           -3.4384    -1.9586    -0.9615 O.3     
  14 C14           -2.1751    -2.5783    -1.2140 C.3     
  15 C15           -1.1899    -2.1840    -0.1135 C.3     
  16 C16            1.6349     5.7076    -0.0639 C.ar    
  17 C17            1.8907     4.4899     0.5660 C.ar    
  18 C18            3.0862     4.3321     1.2793 C.ar    
  19 C19            3.9661     5.3961     1.3286 C.ar    
  20 C20            3.6400     6.5783     0.6748 C.ar    
  21 N21            2.5026     6.6966     0.0095 N.ar    
  22 O22            4.5005     7.6267     0.7199 O.3     
  23 C23            4.1113     8.8155     0.0291 C.3     
  24 C24            5.1991     9.8791     0.1917 C.3     
  25 C25            5.3891    10.1914     1.6773 C.3     
  26 C26            6.5137     9.3573    -0.3920 C.3     
  27 O27            4.8099    11.0680    -0.4991 O.3     
  28 C28            5.7618    12.1300    -0.4099 C.3     
  29 C29           -1.2207     4.7326     0.9539 C.3     
  30 C30           -2.2922     5.1647    -0.0491 C.3     
  31 C31           -2.7022     4.5863     1.3067 C.3     
  32 H32            3.2203    -0.4899    -0.4324 H       
  33 H33            3.2959     1.8937    -0.0324 H       
  34 H34           -2.9243    -0.2575     1.1059 H       
  35 H35           -2.3371     1.0453     0.0402 H       
  36 H36           -4.4094    -0.1388    -0.8259 H       
  37 H37           -3.0255    -0.1884    -1.9457 H       
  38 H38           -2.2965    -3.6615    -1.2248 H       
  39 H39           -1.7922    -2.2445    -2.1785 H       
  40 H40           -0.1908    -2.5330    -0.3744 H       
  41 H41           -1.5005    -2.6311     0.8308 H       
  42 H42            0.7189     5.8399    -0.6205 H       
  43 H43            3.3141     3.4019     1.7785 H       
  44 H44            4.8970     5.3102     1.8695 H       
  45 H45            3.9760     8.5930    -1.0293 H       
  46 H46            3.1748     9.1872     0.4449 H       
  47 H47            5.6860     9.2846     2.2042 H       
  48 H48            6.1641    10.9491     1.7931 H       
  49 H49            4.4526    10.5631     2.0931 H       
  50 H50            6.3784     9.1348    -1.4504 H       
  51 H51            7.2887    10.1150    -0.2762 H       
  52 H52            6.8106     8.4505     0.1349 H       
  53 H53            5.9089    12.3993     0.6361 H       
  54 H54            6.7100    11.8050    -0.8381 H       
  55 H55            5.3927    12.9959    -0.9595 H       
  56 H56           -0.6579     5.5178     1.4588 H       
  57 H57           -2.4347     6.2342    -0.2038 H       
  58 H58           -2.4399     4.5384    -0.9289 H       
  59 H59           -3.1196     3.5794     1.3189 H       
  60 H60           -3.1145     5.2752     2.0440 H       
@<TRIPOS>BOND
   1    1    2 1
   2    1    3 1
   3    1    7 2
   4    2    4 2
   5    2   10 1
   6    3    6 1
   7    3    9 1
   8    4    5 1
   9    5    6 2
  10    5   32 1
  11    6   33 1
  12    7    8 1
  13    8    9 2
  14    8   29 1
  15    9   17 1
  16   10   11 1
  17   10   15 1
  18   11   12 1
  19   11   34 1
  20   11   35 1
  21   12   13 1
  22   12   36 1
  23   12   37 1
  24   13   14 1
  25   14   15 1
  26   14   38 1
  27   14   39 1
  28   15   40 1
  29   15   41 1
  30   16   17 ar
  31   16   21 ar
  32   16   42 1
  33   17   18 ar
  34   18   19 ar
  35   18   43 1
  36   19   20 ar
  37   19   44 1
  38   20   21 ar
  39   20   22 1
  40   22   23 1
  41   23   24 1
  42   23   45 1
  43   23   46 1
  44   24   25 1
  45   24   26 1
  46   24   27 1
  47   25   47 1
  48   25   48 1
  49   25   49 1
  50   26   50 1
  51   26   51 1
  52   26   52 1
  53   27   28 1
  54   28   53 1
  55   28   54 1
  56   28   55 1
  57   29   30 1
  58   29   31 1
  59   29   56 1
  60   30   31 1
  61   30   57 1
  62   30   58 1
  63   31   59 1
  64   31   60 1

#	End of record

