#	Name: ASD03200043
#	Creating user name:	WinNT
#	Creation time:	15. 06. 2019 20:34

#	Modifying user name:	WinNT
#	Modification time:	15. 06. 2019 20:34

#	Program:	/corina/corina34_cracker 3.40 0067  02.08.2006

@<TRIPOS>MOLECULE
ASD03200043
  50   53    0    0    0
SMALL
NO_CHARGES


@<TRIPOS>ATOM
   1 C1             0.9609    -1.0183    -0.1640 C.3     
   2 N2            -0.0397     0.0450    -0.0078 N.3     
   3 C3             0.2893     0.9218     1.1233 C.3     
   4 C4             1.6358     1.6027     0.8679 C.3     
   5 C5             2.7182     0.5335     0.6950 C.3     
   6 C6             2.3275    -0.3953    -0.4579 C.3     
   7 C7            -1.3197    -0.4899     0.1305 C.ar    
   8 C8            -2.0255    -0.3557     1.3236 C.ar    
   9 C9            -3.2905    -0.8989     1.4209 C.ar    
  10 N10           -3.8347    -1.5394     0.4036 N.ar    
  11 C11           -3.2029    -1.6906    -0.7454 C.ar    
  12 C12           -1.9321    -1.1712    -0.9282 C.ar    
  13 N13           -1.2656    -1.3340    -2.1502 N.am    
  14 C14           -1.4488    -2.4565    -2.8734 C.2     
  15 C15           -0.8532    -2.5742    -4.2065 C.2     
  16 O16           -2.1095    -3.3726    -2.4187 O.2     
  17 C17           -1.0876    -3.6487    -5.0356 C.2     
  18 S18           -0.1874    -3.3920    -6.5282 S.3     
  19 C19            0.4248    -1.8634    -5.9070 C.2     
  20 N20           -0.0434    -1.6470    -4.7201 N.2     
  21 C21            1.3361    -0.9569    -6.6362 C.ar    
  22 N22            1.9745     2.4634     2.0091 N.3     
  23 N23           -1.8874    -4.7364    -4.7475 N.pl3   
  24 C24            1.6930    -1.2356    -7.9591 C.ar    
  25 C25            2.5448    -0.3836    -8.6350 C.ar    
  26 C26            3.0443     0.7441    -8.0038 C.ar    
  27 C27            2.6935     1.0238    -6.6926 C.ar    
  28 C28            1.8392     0.1838    -6.0092 C.ar    
  29 F29            1.2063    -2.3354    -8.5745 F       
  30 F30            3.8771     1.5742    -8.6692 F       
  31 H31            1.0177    -1.6014     0.7551 H       
  32 H32            0.6734    -1.6692    -0.9897 H       
  33 H33           -0.4861     1.6800     1.2327 H       
  34 H34            0.3492     0.3295     2.0364 H       
  35 H35            1.5725     2.2061    -0.0376 H       
  36 H36            3.6709     1.0127     0.4698 H       
  37 H37            2.8087    -0.0452     1.6143 H       
  38 H38            3.0730    -1.1841    -0.5584 H       
  39 H39            2.2751     0.1767    -1.3843 H       
  40 H40           -1.5884     0.1664     2.1619 H       
  41 H41           -3.8430    -0.7987     2.3434 H       
  42 H42           -3.6839    -2.2217    -1.5534 H       
  43 H43           -0.6723    -0.6389    -2.4754 H       
  44 H44            2.8602     2.9244     1.8640 H       
  45 H45            1.2421     3.1346     2.1856 H       
  46 H46           -2.3451    -4.7893    -3.8939 H       
  47 H47           -1.9916    -5.4478    -5.3986 H       
  48 H48            2.8221    -0.5971    -9.6567 H       
  49 H49            3.0864     1.9043    -6.2060 H       
  50 H50            1.5668     0.4039    -4.9876 H       
@<TRIPOS>BOND
   1    1    2 1
   2    1    6 1
   3    1   31 1
   4    1   32 1
   5    2    3 1
   6    2    7 1
   7    3    4 1
   8    3   33 1
   9    3   34 1
  10    4    5 1
  11    4   22 1
  12    4   35 1
  13    5    6 1
  14    5   36 1
  15    5   37 1
  16    6   38 1
  17    6   39 1
  18    7    8 ar
  19    7   12 ar
  20    8    9 ar
  21    8   40 1
  22    9   10 ar
  23    9   41 1
  24   10   11 ar
  25   11   12 ar
  26   11   42 1
  27   12   13 1
  28   13   14 am
  29   13   43 1
  30   14   15 1
  31   14   16 2
  32   15   17 2
  33   15   20 1
  34   17   18 1
  35   17   23 1
  36   18   19 1
  37   19   20 2
  38   19   21 1
  39   21   24 ar
  40   21   28 ar
  41   22   44 1
  42   22   45 1
  43   23   46 1
  44   23   47 1
  45   24   25 ar
  46   24   29 1
  47   25   26 ar
  48   25   48 1
  49   26   27 ar
  50   26   30 1
  51   27   28 ar
  52   27   49 1
  53   28   50 1

#	End of record

