#	Name: ASD07300491
#	Creating user name:	WinNT
#	Creation time:	15. 06. 2019 21:09

#	Modifying user name:	WinNT
#	Modification time:	15. 06. 2019 21:09

#	Program:	/corina/corina34_cracker 3.40 0067  02.08.2006

@<TRIPOS>MOLECULE
ASD07300491
  33   35    0    0    0
SMALL
NO_CHARGES


@<TRIPOS>ATOM
   1 C1            -0.0168     1.3865     0.0097 C.ar    
   2 C2             0.0021    -0.0041     0.0020 C.ar    
   3 C3             1.2002    -0.6829    -0.0134 C.ar    
   4 C4             2.3767     0.0578    -0.0210 C.ar    
   5 C5             2.2970     1.4364    -0.0128 C.ar    
   6 N6             1.1336     2.0539     0.0023 N.ar    
   7 N7            -1.3307     1.8466     0.0303 N.am    
   8 C8            -1.4399    -0.4518     0.0142 C.3     
   9 C9            -2.2242     0.8433     0.0374 C.2     
  10 O10           -3.4318     0.9541     0.0547 O.2     
  11 C11           -1.7617    -1.2596    -1.2447 C.3     
  12 C12           -1.7362    -1.2731     1.2707 C.3     
  13 C13           -1.6818     3.2042     0.0429 C.ar    
  14 C14           -0.6919     4.1777     0.0342 C.ar    
  15 C15           -1.0383     5.5143     0.0466 C.ar    
  16 C16           -2.3750     5.8846     0.0677 C.ar    
  17 C17           -3.3646     4.9123     0.0763 C.ar    
  18 C18           -3.0196     3.5754     0.0581 C.ar    
  19 O19           -2.7155     7.2008     0.0803 O.3     
  20 H20            1.2252    -1.7626    -0.0191 H       
  21 H21            3.3368    -0.4366    -0.0327 H       
  22 H22            3.2061     2.0195    -0.0182 H       
  23 H23           -1.1186    -2.1387    -1.2866 H       
  24 H24           -2.8051    -1.5736    -1.2181 H       
  25 H25           -1.5905    -0.6419    -2.1263 H       
  26 H26           -1.5471    -0.6649     2.1553 H       
  27 H27           -2.7800    -1.5869     1.2619 H       
  28 H28           -1.0925    -2.1525     1.2901 H       
  29 H29            0.3488     3.8895     0.0182 H       
  30 H30           -0.2683     6.2716     0.0403 H       
  31 H31           -4.4051     5.2012     0.0930 H       
  32 H32           -3.7901     2.8187     0.0600 H       
  33 H33           -2.8264     7.5869    -0.7994 H       
@<TRIPOS>BOND
   1    1    2 ar
   2    1    6 ar
   3    1    7 1
   4    2    3 ar
   5    2    8 1
   6    3    4 ar
   7    3   20 1
   8    4    5 ar
   9    4   21 1
  10    5    6 ar
  11    5   22 1
  12    7    9 am
  13    7   13 1
  14    8    9 1
  15    8   11 1
  16    8   12 1
  17    9   10 2
  18   11   23 1
  19   11   24 1
  20   11   25 1
  21   12   26 1
  22   12   27 1
  23   12   28 1
  24   13   14 ar
  25   13   18 ar
  26   14   15 ar
  27   14   29 1
  28   15   16 ar
  29   15   30 1
  30   16   17 ar
  31   16   19 1
  32   17   18 ar
  33   17   31 1
  34   18   32 1
  35   19   33 1

#	End of record

