#	Name: ASD01230054
#	Creating user name:	WinNT
#	Creation time:	15. 06. 2019 19:11

#	Modifying user name:	WinNT
#	Modification time:	15. 06. 2019 19:11

#	Program:	/corina/corina34_cracker 3.40 0067  02.08.2006

@<TRIPOS>MOLECULE
ASD01230054
  27   29    0    0    0
SMALL
NO_CHARGES


@<TRIPOS>ATOM
   1 C1            -0.0247     1.4088    -0.0814 C.ar    
   2 C2            -0.0174     0.0259    -0.0950 C.ar    
   3 C3             1.1878    -0.6517    -0.0703 C.ar    
   4 C4             2.3762     0.0484    -0.0322 C.ar    
   5 C5             2.3876     1.4344    -0.0448 C.ar    
   6 C6             1.1621     2.1111    -0.0566 C.ar    
   7 S7             3.9049    -0.8377     0.0657 S.o2    
   8 N8             5.0689     0.3508    -0.0913 N.am    
   9 C9             4.7305     1.6371     0.5534 C.3     
  10 N10            3.5470     2.1991    -0.0843 N.3     
  11 C11            3.2925     3.5661     0.3897 C.3     
  12 O12            4.0059    -1.3426     1.3901 O.2     
  13 O13            3.9860    -1.6517    -1.0962 O.2     
  14 F14            1.1418     3.4619    -0.0436 F       
  15 C15            2.8507     3.7385     1.8444 C.3     
  16 C16            4.2623     4.1486     1.4197 C.3     
  17 H17           -0.9642     1.9414    -0.0947 H       
  18 H18           -0.9478    -0.5217    -0.1243 H       
  19 H19            1.1989    -1.7316    -0.0805 H       
  20 H20            5.9016     0.2078    -0.5679 H       
  21 H21            4.5295     1.4718     1.6119 H       
  22 H22            5.5655     2.3293     0.4449 H       
  23 H23            2.8717     4.2489    -0.3484 H       
  24 H24            2.1397     4.5351     2.0633 H       
  25 H25            2.7490     2.8378     2.4496 H       
  26 H26            5.0891     3.5176     1.7457 H       
  27 H27            4.4798     5.2150     1.3594 H       
@<TRIPOS>BOND
   1    1    2 ar
   2    1    6 ar
   3    1   17 1
   4    2    3 ar
   5    2   18 1
   6    3    4 ar
   7    3   19 1
   8    4    5 ar
   9    4    7 1
  10    5    6 ar
  11    5   10 1
  12    6   14 1
  13    7    8 am
  14    7   12 2
  15    7   13 2
  16    8    9 1
  17    8   20 1
  18    9   10 1
  19    9   21 1
  20    9   22 1
  21   10   11 1
  22   11   15 1
  23   11   16 1
  24   11   23 1
  25   15   16 1
  26   15   24 1
  27   15   25 1
  28   16   26 1
  29   16   27 1

#	End of record

