#	Name: ASD07930255
#	Creating user name:	WinNT
#	Creation time:	15. 06. 2019 21:12

#	Modifying user name:	WinNT
#	Modification time:	15. 06. 2019 21:12

#	Program:	/corina/corina34_cracker 3.40 0067  02.08.2006

@<TRIPOS>MOLECULE
ASD07930255
  58   62    0    0    0
SMALL
NO_CHARGES


@<TRIPOS>ATOM
   1 C1             0.1197     0.1624    -1.4378 C.2     
   2 C2             0.3896    -1.1673    -1.6118 C.2     
   3 C3             1.7701    -1.6337    -1.4608 C.2     
   4 N4             2.7341    -0.7482    -1.1544 N.am    
   5 C5             2.4374     0.5855    -0.9862 C.2     
   6 C6             1.1625     1.0420    -1.1217 C.2     
   7 C7             4.1277    -1.1831    -0.9896 C.3     
   8 C8             5.0358    -0.1247    -1.6334 C.3     
   9 N9             4.8065     1.1602    -0.9575 N.am    
  10 C10            3.5361     1.5197    -0.6551 C.2     
  11 C11            5.9309     2.0357    -0.6175 C.3     
  12 O12            3.3033     2.5876    -0.1226 O.2     
  13 O13            2.0419    -2.8128    -1.6110 O.2     
  14 N14           -0.6339    -2.0654    -1.9276 N.pl3   
  15 C15           -0.7609    -2.7725    -3.0812 C.2     
  16 N16           -1.8409    -3.5012    -3.0049 N.2     
  17 C17           -2.4358    -3.2921    -1.8209 C.2     
  18 C18           -1.6965    -2.4039    -1.1297 C.2     
  19 C19           -3.7084    -3.9433    -1.3442 C.3     
  20 C20            6.3128     2.8733    -1.8395 C.3     
  21 O21            5.2648     3.8011    -2.1275 O.3     
  22 C22            5.3846     4.5319    -3.2632 C.ar    
  23 C23            6.4144     4.2975    -4.1570 C.ar    
  24 C24            4.4582     5.5525    -3.5736 C.ar    
  25 C25            4.6249     6.2882    -4.7716 C.ar    
  26 N26            5.6472     6.0113    -5.5884 N.ar    
  27 C27            6.5108     5.0623    -5.3124 C.ar    
  28 C28            3.3829     5.8472    -2.7210 C.ar    
  29 C29            2.5100     6.8396    -3.0563 C.ar    
  30 C30            2.6721     7.5641    -4.2344 C.ar    
  31 C31            3.7046     7.3042    -5.0826 C.ar    
  32 Cl32           3.1651     4.9532    -1.2490 Cl      
  33 C33            3.8596     8.1020    -6.3517 C.3     
  34 C34            7.6414     4.7987    -6.2733 C.3     
  35 F35            7.6157     5.7523    -7.2966 F       
  36 F36            8.8607     4.8786    -5.5920 F       
  37 F37            7.4974     3.5204    -6.8233 F       
  38 H38           -0.8892     0.5318    -1.5478 H       
  39 H39            0.9531     2.0925    -0.9842 H       
  40 H40            4.3622    -1.2736     0.0710 H       
  41 H41            4.2745    -2.1437    -1.4833 H       
  42 H42            6.0792    -0.4182    -1.5177 H       
  43 H43            4.7943    -0.0299    -2.6920 H       
  44 H44            5.6426     2.6963     0.2002 H       
  45 H45            6.7836     1.4296    -0.3114 H       
  46 H46           -0.0822    -2.7370    -3.9206 H       
  47 H47           -1.9044    -2.0255    -0.1397 H       
  48 H48           -3.4688    -4.8678    -0.8187 H       
  49 H49           -4.2319    -3.2667    -0.6687 H       
  50 H50           -4.3451    -4.1665    -2.2003 H       
  51 H51            7.2339     3.4183    -1.6330 H       
  52 H52            6.4632     2.2174    -2.6970 H       
  53 H53            7.1405     3.5233    -3.9569 H       
  54 H54            1.6826     7.0663    -2.4003 H       
  55 H55            1.9676     8.3454    -4.4788 H       
  56 H56            4.4798     8.9770    -6.1573 H       
  57 H57            4.3327     7.4834    -7.1143 H       
  58 H58            2.8783     8.4227    -6.7014 H       
@<TRIPOS>BOND
   1    1    2 2
   2    1    6 1
   3    1   38 1
   4    2    3 1
   5    2   14 1
   6    3    4 am
   7    3   13 2
   8    4    5 1
   9    4    7 1
  10    5    6 2
  11    5   10 1
  12    6   39 1
  13    7    8 1
  14    7   40 1
  15    7   41 1
  16    8    9 1
  17    8   42 1
  18    8   43 1
  19    9   10 am
  20    9   11 1
  21   10   12 2
  22   11   20 1
  23   11   44 1
  24   11   45 1
  25   14   15 1
  26   14   18 1
  27   15   16 2
  28   15   46 1
  29   16   17 1
  30   17   18 2
  31   17   19 1
  32   18   47 1
  33   19   48 1
  34   19   49 1
  35   19   50 1
  36   20   21 1
  37   20   51 1
  38   20   52 1
  39   21   22 1
  40   22   23 ar
  41   22   24 ar
  42   23   27 ar
  43   23   53 1
  44   24   25 ar
  45   24   28 ar
  46   25   26 ar
  47   25   31 ar
  48   26   27 ar
  49   27   34 1
  50   28   29 ar
  51   28   32 1
  52   29   30 ar
  53   29   54 1
  54   30   31 ar
  55   30   55 1
  56   31   33 1
  57   33   56 1
  58   33   57 1
  59   33   58 1
  60   34   35 1
  61   34   36 1
  62   34   37 1

#	End of record

