#	Name: ASD01913355
#	Creating user name:	WinNT
#	Creation time:	15. 06. 2019 20:01

#	Modifying user name:	WinNT
#	Modification time:	15. 06. 2019 20:01

#	Program:	/corina/corina34_cracker 3.40 0067  02.08.2006

@<TRIPOS>MOLECULE
ASD01913355
  40   42    0    0    0
SMALL
NO_CHARGES


@<TRIPOS>ATOM
   1 C1            -0.0166     1.3764     0.0096 C.2     
   2 C2             0.0021    -0.0041     0.0020 C.2     
   3 C3             1.2499    -0.6727    -0.0135 C.2     
   4 N4             2.3635     0.0159    -0.0200 N.2     
   5 C5             2.3516     1.3566    -0.0127 C.2     
   6 N6             1.1688     2.0507     0.0019 N.pl3   
   7 C7             3.3715     2.2994    -0.0170 C.2     
   8 C8             2.7836     3.5556    -0.0048 C.2     
   9 N9             1.4772     3.4160     0.0064 N.2     
  10 C10            3.5237     4.8684    -0.0040 C.3     
  11 C11           -1.2215    -0.7480     0.0102 C.1     
  12 C12           -2.2246    -1.3579     0.0169 C.1     
  13 C13           -3.4482    -2.1018     0.0250 C.ar    
  14 C14           -3.4187    -3.4995     0.0172 C.ar    
  15 C15           -4.5978    -4.2116     0.0251 C.ar    
  16 C16           -5.8501    -2.1515     0.0543 C.ar    
  17 C17           -4.6753    -1.4323     0.0466 C.ar    
  18 C18           -5.8167    -3.5418     0.0403 C.ar    
  19 N19           -7.0090    -4.2667     0.0472 N.pl3   
  20 C20            4.0870     5.1370    -1.4010 C.3     
  21 C21            2.5637     5.9948     0.3841 C.3     
  22 C22            4.6716     4.8061     1.0055 C.3     
  23 H23           -0.9538     1.9131     0.0170 H       
  24 H24            1.2833    -1.7521    -0.0196 H       
  25 H25            4.4313     2.0918    -0.0275 H       
  26 H26           -2.4726    -4.0203     0.0047 H       
  27 H27           -4.5758    -5.2913     0.0191 H       
  28 H28           -6.7985    -1.6350     0.0713 H       
  29 H29           -4.7021    -0.3527     0.0571 H       
  30 H30           -6.9870    -5.2365     0.0415 H       
  31 H31           -7.8597    -3.8009     0.0578 H       
  32 H32            3.2692     5.1814    -2.1202 H       
  33 H33            4.6223     6.0865    -1.4004 H       
  34 H34            4.7709     4.3346    -1.6775 H       
  35 H35            2.1624     5.8034     1.3792 H       
  36 H36            3.0990     6.9443     0.3846 H       
  37 H37            1.7459     6.0391    -0.3352 H       
  38 H38            5.3555     4.0036     0.7290 H       
  39 H39            5.2069     5.7556     1.0060 H       
  40 H40            4.2703     4.6147     2.0007 H       
@<TRIPOS>BOND
   1    1    2 2
   2    1    6 1
   3    1   23 1
   4    2    3 1
   5    2   11 1
   6    3    4 2
   7    3   24 1
   8    4    5 1
   9    5    6 1
  10    5    7 2
  11    6    9 1
  12    7    8 1
  13    7   25 1
  14    8    9 2
  15    8   10 1
  16   10   20 1
  17   10   21 1
  18   10   22 1
  19   11   12 3
  20   12   13 1
  21   13   14 ar
  22   13   17 ar
  23   14   15 ar
  24   14   26 1
  25   15   18 ar
  26   15   27 1
  27   16   17 ar
  28   16   18 ar
  29   16   28 1
  30   17   29 1
  31   18   19 1
  32   19   30 1
  33   19   31 1
  34   20   32 1
  35   20   33 1
  36   20   34 1
  37   21   35 1
  38   21   36 1
  39   21   37 1
  40   22   38 1
  41   22   39 1
  42   22   40 1

#	End of record

