#	Name: ASD05130117
#	Creating user name:	WinNT
#	Creation time:	15. 06. 2019 20:56

#	Modifying user name:	WinNT
#	Modification time:	15. 06. 2019 20:56

#	Program:	/corina/corina34_cracker 3.40 0067  02.08.2006

@<TRIPOS>MOLECULE
ASD05130117
  55   58    0    0    0
SMALL
NO_CHARGES


@<TRIPOS>ATOM
   1 N1            -0.0345     1.3709    -0.0015 N.am    
   2 C2            -0.0022     0.1686     0.6066 C.2     
   3 O3             1.0499    -0.2713     1.0286 O.2     
   4 N4            -1.1362    -0.5463     0.7470 N.am    
   5 C5            -1.0883    -1.8347     1.2916 C.ar    
   6 C6            -0.1792    -2.1293     2.2958 C.ar    
   7 C7            -0.1355    -3.4151     2.8353 C.ar    
   8 C8            -1.0080    -4.3967     2.3598 C.ar    
   9 C9            -1.9089    -4.0928     1.3600 C.ar    
  10 C10           -1.9558    -2.8169     0.8295 C.ar    
  11 C11            0.8010    -3.7276     3.8726 C.1     
  12 N12            1.5439    -3.9755     4.6955 N.1     
  13 C13            1.1271     2.1514    -0.0729 C.ar    
  14 C14            1.0298     3.5351    -0.1862 C.ar    
  15 C15            2.1745     4.3092    -0.2565 C.ar    
  16 C16            3.4199     3.7123    -0.2150 C.ar    
  17 C17            3.5255     2.3255    -0.1015 C.ar    
  18 C18            2.3721     1.5462    -0.0249 C.ar    
  19 F19           -0.1854     4.1240    -0.2281 F       
  20 N20            6.8875     1.1734     1.1993 N.am    
  21 C21            5.6742     1.7582     1.1578 C.2     
  22 C22            4.8600     1.6834    -0.0574 C.2     
  23 C23            5.3397     1.0162    -1.1514 C.2     
  24 C24            6.6171     0.4111    -1.0834 C.ar    
  25 C25            7.1473    -0.2812    -2.1791 C.ar    
  26 N26            8.3362    -0.8378    -2.0993 N.ar    
  27 C27            9.0767    -0.7713    -0.9980 C.ar    
  28 C28            8.6275    -0.1051     0.1333 C.ar    
  29 C29            7.3773     0.5015     0.1032 C.ar    
  30 O30            5.2521     2.3498     2.1355 O.2     
  31 N31           10.3231    -1.3802    -0.9787 N.pl3   
  32 C32           11.1513    -1.3156     0.2280 C.3     
  33 C33            7.6948     1.2606     2.4187 C.3     
  34 C34            7.3727     0.0741     3.3295 C.3     
  35 Cl35           4.8533     4.6875    -0.3047 Cl      
  36 H36           -0.8609     1.6942    -0.3932 H       
  37 H37           -1.9854    -0.1678     0.4706 H       
  38 H38            0.4931    -1.3661     2.6591 H       
  39 H39           -0.9772    -5.3934     2.7744 H       
  40 H40           -2.5825    -4.8532     0.9933 H       
  41 H41           -2.6664    -2.5838     0.0504 H       
  42 H42            2.0943     5.3826    -0.3444 H       
  43 H43            2.4491     0.4729     0.0671 H       
  44 H44            4.7511     0.9520    -2.0546 H       
  45 H45            6.5775    -0.3586    -3.0932 H       
  46 H46            9.2391    -0.0586     1.0223 H       
  47 H47           10.6462    -1.8487    -1.7642 H       
  48 H48           12.0874    -1.8466     0.0550 H       
  49 H49           11.3635    -0.2737     0.4677 H       
  50 H50           10.6192    -1.7785     1.0590 H       
  51 H51            8.7525     1.2406     2.1563 H       
  52 H52            7.4671     2.1907     2.9395 H       
  53 H53            7.6003    -0.8560     2.8087 H       
  54 H54            7.9733     0.1390     4.2367 H       
  55 H55            6.3149     0.0942     3.5918 H       
@<TRIPOS>BOND
   1    1    2 am
   2    1   13 1
   3    1   36 1
   4    2    3 2
   5    2    4 am
   6    4    5 1
   7    4   37 1
   8    5    6 ar
   9    5   10 ar
  10    6    7 ar
  11    6   38 1
  12    7    8 ar
  13    7   11 1
  14    8    9 ar
  15    8   39 1
  16    9   10 ar
  17    9   40 1
  18   10   41 1
  19   11   12 3
  20   13   14 ar
  21   13   18 ar
  22   14   15 ar
  23   14   19 1
  24   15   16 ar
  25   15   42 1
  26   16   17 ar
  27   16   35 1
  28   17   18 ar
  29   17   22 1
  30   18   43 1
  31   20   21 am
  32   20   29 1
  33   20   33 1
  34   21   22 1
  35   21   30 2
  36   22   23 2
  37   23   24 1
  38   23   44 1
  39   24   25 ar
  40   24   29 ar
  41   25   26 ar
  42   25   45 1
  43   26   27 ar
  44   27   28 ar
  45   27   31 1
  46   28   29 ar
  47   28   46 1
  48   31   32 1
  49   31   47 1
  50   32   48 1
  51   32   49 1
  52   32   50 1
  53   33   34 1
  54   33   51 1
  55   33   52 1
  56   34   53 1
  57   34   54 1
  58   34   55 1

#	End of record

