#	Name: ASD01917118
#	Creating user name:	WinNT
#	Creation time:	15. 06. 2019 20:08

#	Modifying user name:	WinNT
#	Modification time:	15. 06. 2019 20:08

#	Program:	/corina/corina34_cracker 3.40 0067  02.08.2006

@<TRIPOS>MOLECULE
ASD01917118
  24   25    0    0    0
SMALL
NO_CHARGES


@<TRIPOS>ATOM
   1 C1            -0.0446     1.4699     0.1634 C.ar    
   2 C2            -0.0094    -0.0064     0.0684 C.2     
   3 N3             1.0558    -0.7684     0.2132 N.2     
   4 C4             0.7181    -2.0465     0.0628 C.2     
   5 N5            -0.5653    -2.1265    -0.1802 N.2     
   6 N6            -1.0659    -0.8144    -0.1766 N.pl3   
   7 C7            -2.4536    -0.4026    -0.4021 C.3     
   8 C8            -3.1956    -0.3975     0.9096 C.2     
   9 O9            -4.4916    -0.0501     0.9462 O.3     
  10 O10           -2.6239    -0.7063     1.9283 O.2     
  11 Br11           1.9044    -3.5144     0.1809 Br      
  12 C12            1.1285     2.2096     0.0121 C.ar    
  13 C13            1.0891     3.5859     0.1017 C.ar    
  14 C14           -0.1103     4.2324     0.3416 C.ar    
  15 C15           -1.2770     3.5045     0.4926 C.ar    
  16 C16           -1.2518     2.1281     0.3989 C.ar    
  17 H17           -2.4701     0.5986    -0.8327 H       
  18 H18           -2.9330    -1.1010    -1.0880 H       
  19 H19           -4.9250    -0.0619     1.8106 H       
  20 H20            2.0655     1.7061    -0.1745 H       
  21 H21            1.9965     4.1598    -0.0152 H       
  22 H22           -0.1358     5.3098     0.4117 H       
  23 H23           -2.2101     4.0148     0.6801 H       
  24 H24           -2.1633     1.5609     0.5165 H       
@<TRIPOS>BOND
   1    1    2 1
   2    1   12 ar
   3    1   16 ar
   4    2    3 2
   5    2    6 1
   6    3    4 1
   7    4    5 2
   8    4   11 1
   9    5    6 1
  10    6    7 1
  11    7    8 1
  12    7   17 1
  13    7   18 1
  14    8    9 1
  15    8   10 2
  16    9   19 1
  17   12   13 ar
  18   12   20 1
  19   13   14 ar
  20   13   21 1
  21   14   15 ar
  22   14   22 1
  23   15   16 ar
  24   15   23 1
  25   16   24 1

#	End of record

