#	Name: ASD00230016
#	Creating user name:	WinNT
#	Creation time:	15. 06. 2019 18:33

#	Modifying user name:	WinNT
#	Modification time:	15. 06. 2019 18:33

#	Program:	/corina/corina34_cracker 3.40 0067  02.08.2006

@<TRIPOS>MOLECULE
ASD00230016
  33   32    0    0    0
SMALL
NO_CHARGES


@<TRIPOS>ATOM
   1 C1             0.1000     1.2468    -0.1749 C.3     
   2 O2             1.8751     1.6722     4.3743 O.2     
   3 C3             0.7927    -0.4489    -1.2448 C.3     
   4 N4             0.0870    -0.2344     0.0613 Du      
   5 C5            -0.6188    -0.0200     1.3674 C.3     
   6 C6             0.3518     0.5973     2.3762 C.3     
   7 S7            -0.4521     0.7132     3.9938 S.3     
   8 C8             0.8151     1.4156     4.9059 C.2     
   9 C9             0.6139     1.7152     6.3690 C.3     
  10 C10            1.8898     2.3344     6.9430 C.3     
  11 C11            1.6855     2.6386     8.4285 C.3     
  12 C12           -1.0657    -1.0615    -0.4258 C.3     
  13 H13            1.1237     1.6158    -0.1120 H       
  14 H14           -0.3031     1.4604    -1.1648 H       
  15 H15           -0.5112     1.7406     0.5806 H       
  16 H16            0.1829    -0.0526    -2.0567 H       
  17 H17            1.7534     0.0658    -1.2275 H       
  18 H18            0.9548    -1.5156    -1.3994 H       
  19 H19            0.9228    -0.7142     0.5917 H       
  20 H20           -1.4636     0.6523     1.2178 H       
  21 H21           -0.9783    -0.9763     1.7474 H       
  22 H22            1.2401    -0.0293     2.4561 H       
  23 H23            0.6391     1.5939     2.0410 H       
  24 H24           -0.2139     2.4146     6.4862 H       
  25 H25            0.3871     0.7914     6.9012 H       
  26 H26            2.7176     1.6350     6.8258 H       
  27 H27            2.1166     3.2582     6.4108 H       
  28 H28            1.4588     1.7147     8.9607 H       
  29 H29            2.5946     3.0797     8.8374 H       
  30 H30            0.8578     3.3380     8.5456 H       
  31 H31           -1.9727    -0.4568    -0.4250 H       
  32 H32           -0.8614    -1.4087    -1.4386 H       
  33 H33           -1.2008    -1.9198     0.2323 H       
@<TRIPOS>BOND
   1    1    4 1
   2    1   13 1
   3    1   14 1
   4    1   15 1
   5    2    8 2
   6    3    4 1
   7    3   16 1
   8    3   17 1
   9    3   18 1
  10    4    5 1
  11    4   12 1
  12    4   19 1
  13    5    6 1
  14    5   20 1
  15    5   21 1
  16    6    7 1
  17    6   22 1
  18    6   23 1
  19    7    8 1
  20    8    9 1
  21    9   10 1
  22    9   24 1
  23    9   25 1
  24   10   11 1
  25   10   26 1
  26   10   27 1
  27   11   28 1
  28   11   29 1
  29   11   30 1
  30   12   31 1
  31   12   32 1
  32   12   33 1

#	End of record

