#	Name: ASD01884303
#	Creating user name:	WinNT
#	Creation time:	15. 06. 2019 19:47

#	Modifying user name:	WinNT
#	Modification time:	15. 06. 2019 19:47

#	Program:	/corina/corina34_cracker 3.40 0067  02.08.2006

@<TRIPOS>MOLECULE
ASD01884303
  48   50    0    0    0
SMALL
NO_CHARGES


@<TRIPOS>ATOM
   1 C1            -2.1140    -2.3066    -3.5127 C.ar    
   2 N2            -1.4375    -2.4884    -2.3956 N.ar    
   3 C3            -1.8645    -2.0175    -1.2407 C.ar    
   4 C4            -3.0537    -1.3074    -1.1619 C.ar    
   5 C5            -3.7932    -1.0969    -2.3219 C.ar    
   6 C6            -3.3049    -1.6042    -3.5149 C.ar    
   7 C7            -4.5324     1.3121    -0.0327 C.ar    
   8 C8            -4.6202    -0.0728     0.0389 C.ar    
   9 C9            -5.8658    -0.6907     0.1183 C.ar    
  10 C10           -7.0144     0.0713     0.1260 C.ar    
  11 C11           -6.9272     1.4629     0.0541 C.ar    
  12 C12           -5.6774     2.0780    -0.0253 C.ar    
  13 B13           -8.2333     2.3341     0.0621 Du      
  14 C14           -1.0527    -2.2535     0.0069 C.3     
  15 O15           -3.4904    -0.8246     0.0310 O.3     
  16 C16           -1.5788    -2.8665    -4.8054 C.3     
  17 F17           -5.9484    -2.0374     0.1873 F       
  18 O18           -8.3311     3.7639    -0.0044 O.3     
  19 O19           -9.5906     1.8745     0.1313 O.3     
  20 C20          -10.2509     2.8155     1.0038 C.3     
  21 C21           -9.3944     4.1003     0.9115 C.3     
  22 C22           -8.8230     4.4599     2.2845 C.3     
  23 C23          -10.2284     5.2584     0.3599 C.3     
  24 C24          -11.6742     3.0889     0.5137 C.3     
  25 C25          -10.2724     2.2868     2.4394 C.3     
  26 H26           -4.7228    -0.5480    -2.2934 H       
  27 H27           -3.8521    -1.4596    -4.4347 H       
  28 H28           -3.5650     1.7888    -0.0897 H       
  29 H29           -7.9806    -0.4074     0.1872 H       
  30 H30           -5.6076     3.1544    -0.0806 H       
  31 H31           -0.3451    -1.4352     0.1401 H       
  32 H32           -1.7177    -2.3028     0.8691 H       
  33 H33           -0.5083    -3.1932    -0.0862 H       
  34 H34           -1.9615    -3.8769    -4.9497 H       
  35 H35           -1.8981    -2.2352    -5.6346 H       
  36 H36           -0.4898    -2.8925    -4.7669 H       
  37 H37           -8.1985     3.6419     2.6437 H       
  38 H38           -8.2230     5.3661     2.2024 H       
  39 H39           -9.6405     4.6277     2.9857 H       
  40 H40          -11.0755     5.4431     1.0205 H       
  41 H41           -9.6111     6.1549     0.3012 H       
  42 H42          -10.5925     5.0022    -0.6350 H       
  43 H43          -12.2476     2.1619     0.5275 H       
  44 H44          -12.1496     3.8199     1.1677 H       
  45 H45          -11.6395     3.4795    -0.5033 H       
  46 H46           -9.2510     2.1129     2.7779 H       
  47 H47          -10.7508     3.0196     3.0893 H       
  48 H48          -10.8308     1.3514     2.4738 H       
@<TRIPOS>BOND
   1    1    2 ar
   2    1   16 1
   3    1    6 ar
   4    2    3 ar
   5    3    4 ar
   6    3   14 1
   7    4    5 ar
   8    4   15 1
   9    5    6 ar
  10    5   26 1
  11    6   27 1
  12    7    8 ar
  13    7   12 ar
  14    7   28 1
  15    8    9 ar
  16    8   15 1
  17    9   10 ar
  18    9   17 1
  19   10   11 ar
  20   10   29 1
  21   11   12 ar
  22   11   13 1
  23   12   30 1
  24   13   18 1
  25   13   19 1
  26   14   31 1
  27   14   32 1
  28   14   33 1
  29   16   34 1
  30   16   35 1
  31   16   36 1
  32   18   21 1
  33   19   20 1
  34   20   21 1
  35   20   24 1
  36   20   25 1
  37   21   22 1
  38   21   23 1
  39   22   37 1
  40   22   38 1
  41   22   39 1
  42   23   40 1
  43   23   41 1
  44   23   42 1
  45   24   43 1
  46   24   44 1
  47   24   45 1
  48   25   46 1
  49   25   47 1
  50   25   48 1

#	End of record

