#	Name: ASD01916030
#	Creating user name:	WinNT
#	Creation time:	15. 06. 2019 20:06

#	Modifying user name:	WinNT
#	Modification time:	15. 06. 2019 20:06

#	Program:	/corina/corina34_cracker 3.40 0067  02.08.2006

@<TRIPOS>MOLECULE
ASD01916030
  46   48    0    0    0
SMALL
NO_CHARGES


@<TRIPOS>ATOM
   1 C1            -0.0201     1.4039    -0.0395 C.ar    
   2 C2            -0.0785     0.1478     0.5852 C.ar    
   3 N3            -1.2190    -0.5129     0.5846 N.ar    
   4 C4            -2.2997    -0.0072     0.0056 C.ar    
   5 C5            -3.5603    -0.7871     0.0309 C.2     
   6 N6            -4.7434    -0.1521     0.1469 N.am    
   7 O7            -3.5268    -1.9989    -0.0529 O.2     
   8 C8             1.1975     2.1572    -0.0640 C.1     
   9 C9             2.1957     2.7748    -0.0841 C.1     
  10 C10            3.4133     3.5282    -0.1086 C.ar    
  11 C11            3.4537     4.7766    -0.7347 C.ar    
  12 C12            5.7349     3.7508     0.4725 C.ar    
  13 C13            4.6321     5.4975    -0.7537 C.ar    
  14 N14           -2.2872     1.1752    -0.5952 N.ar    
  15 C15           -1.1864     1.8986    -0.6447 C.ar    
  16 C16            4.5655     3.0205     0.4990 C.ar    
  17 C17            5.7710     4.9841    -0.1539 C.ar    
  18 C18           -6.0057    -0.8980     0.0528 C.3     
  19 C19           -4.7953     1.2983     0.3758 C.3     
  20 C20           -5.6570     1.5717     1.6126 C.3     
  21 C21           -7.0271     0.9148     1.4301 C.3     
  22 C22           -6.8512    -0.5950     1.2939 C.3     
  23 O23           -7.8448     1.1951     2.5680 O.3     
  24 C24           -8.2222    -1.2575     1.1442 C.3     
  25 C25           -6.1522    -1.1422     2.5401 C.3     
  26 F26            4.6743     6.7049    -1.3584 F       
  27 H27            0.7975    -0.2706     1.0585 H       
  28 H28            2.5664     5.1766    -1.2028 H       
  29 H29            6.6263     3.3569     0.9378 H       
  30 H30           -1.1840     2.8607    -1.1353 H       
  31 H31            4.5397     2.0581     0.9885 H       
  32 H32            6.6898     5.5515    -0.1710 H       
  33 H33           -6.5466    -0.5897    -0.8419 H       
  34 H34           -5.7961    -1.9666     0.0055 H       
  35 H35           -3.7872     1.6783     0.5416 H       
  36 H36           -5.2352     1.7897    -0.4920 H       
  37 H37           -5.1693     1.1570     2.4947 H       
  38 H38           -5.7829     2.6472     1.7377 H       
  39 H39           -7.5038     1.3120     0.5339 H       
  40 H40           -7.9982     2.1378     2.7195 H       
  41 H41           -8.7187    -0.8682     0.2554 H       
  42 H42           -8.0960    -2.3358     1.0469 H       
  43 H43           -8.8285    -1.0405     2.0236 H       
  44 H44           -6.7569    -0.9251     3.4206 H       
  45 H45           -6.0268    -2.2205     2.4423 H       
  46 H46           -5.1751    -0.6707     2.6451 H       
@<TRIPOS>BOND
   1    1    2 ar
   2    1    8 1
   3    1   15 ar
   4    2    3 ar
   5    2   27 1
   6    3    4 ar
   7    4   14 ar
   8    4    5 1
   9    5    6 am
  10    5    7 2
  11    6   19 1
  12    6   18 1
  13    8    9 3
  14    9   10 1
  15   10   11 ar
  16   10   16 ar
  17   11   13 ar
  18   11   28 1
  19   12   17 ar
  20   12   16 ar
  21   12   29 1
  22   13   26 1
  23   13   17 ar
  24   14   15 ar
  25   15   30 1
  26   16   31 1
  27   17   32 1
  28   18   22 1
  29   18   33 1
  30   18   34 1
  31   19   20 1
  32   19   35 1
  33   19   36 1
  34   20   21 1
  35   20   37 1
  36   20   38 1
  37   21   22 1
  38   21   23 1
  39   21   39 1
  40   22   24 1
  41   22   25 1
  42   23   40 1
  43   24   41 1
  44   24   42 1
  45   24   43 1
  46   25   44 1
  47   25   45 1
  48   25   46 1

#	End of record

