#	Name: ASD01811084
#	Creating user name:	WinNT
#	Creation time:	15. 06. 2019 19:26

#	Modifying user name:	WinNT
#	Modification time:	15. 06. 2019 19:26

#	Program:	/corina/corina34_cracker 3.40 0067  02.08.2006

@<TRIPOS>MOLECULE
ASD01811084
  47   50    0    0    0
SMALL
NO_CHARGES


@<TRIPOS>ATOM
   1 C1            -0.0167     1.3786     0.0096 C.2     
   2 C2             0.0021    -0.0041     0.0020 C.2     
   3 N3            -1.2005    -0.7055     0.0097 N.pl3   
   4 C4            -2.3926    -0.1023     0.0243 C.2     
   5 C5            -2.4965     1.2739     0.0323 C.2     
   6 C6            -1.2596     2.0677     0.0305 C.2     
   7 C7            -1.1569    -2.1698     0.0010 C.3     
   8 C8            -1.1281    -2.6800     1.4187 C.ar    
   9 O9            -1.2988     3.2879     0.0377 O.2     
  10 C10           -3.8117     1.9296     0.0473 C.2     
  11 O11           -4.8253     1.2585     0.0530 O.2     
  12 O12           -3.8940     3.2751     0.0549 O.3     
  13 S13            1.6315     1.9957    -0.0028 S.3     
  14 C14            2.2835     0.3656    -0.0178 C.2     
  15 C15            1.2977    -0.5254    -0.0131 C.2     
  16 N16            0.0250    -2.7716     2.0523 N.ar    
  17 C17            0.1042    -3.2107     3.2919 C.ar    
  18 C18           -1.0427    -3.5979     3.9816 C.ar    
  19 C19           -2.2802    -3.5126     3.3373 C.ar    
  20 C20           -2.3119    -3.0396     2.0369 C.ar    
  21 C21           -0.9519    -4.0932     5.3772 C.ar    
  22 C22            0.2879    -4.1783     6.0204 C.ar    
  23 C23            0.3232    -4.6448     7.3197 C.ar    
  24 C24           -0.8663    -5.0122     7.9424 C.ar    
  25 N25           -2.0237    -4.9197     7.3047 N.ar    
  26 C26           -2.0996    -4.4741     6.0667 C.ar    
  27 N27           -0.8393    -5.4825     9.2494 N.pl3   
  28 C28            0.4185    -5.4863    10.0006 C.3     
  29 C29           -2.0685    -5.9745     9.8763 C.3     
  30 H30           -3.2907    -0.7021     0.0297 H       
  31 H31           -2.0406    -2.5566    -0.5065 H       
  32 H32           -0.2615    -2.5035    -0.5235 H       
  33 H33           -4.7808     3.6606     0.0648 H       
  34 H34            3.3355     0.1218    -0.0295 H       
  35 H35            1.4869    -1.5886    -0.0210 H       
  36 H36            1.0669    -3.2715     3.7776 H       
  37 H37           -3.1889    -3.8044     3.8428 H       
  38 H38           -3.2501    -2.9600     1.5079 H       
  39 H39            1.1954    -3.8866     5.5127 H       
  40 H40            1.2627    -4.7240     7.8465 H       
  41 H41           -3.0613    -4.4123     5.5791 H       
  42 H42            0.5273    -4.5407    10.5317 H       
  43 H43            0.4108    -6.3070    10.7178 H       
  44 H44            1.2531    -5.6140     9.3112 H       
  45 H45           -2.8942    -5.8942     9.1694 H       
  46 H46           -1.9370    -7.0175    10.1645 H       
  47 H47           -2.2887    -5.3780    10.7616 H       
@<TRIPOS>BOND
   1    1    2 2
   2    1   13 1
   3    1    6 1
   4    2    3 1
   5    2   15 1
   6    3    4 1
   7    3    7 1
   8    4    5 2
   9    4   30 1
  10    5    6 1
  11    5   10 1
  12    6    9 2
  13    7    8 1
  14    7   31 1
  15    7   32 1
  16    8   16 ar
  17    8   20 ar
  18   10   11 2
  19   10   12 1
  20   12   33 1
  21   13   14 1
  22   14   15 2
  23   14   34 1
  24   15   35 1
  25   16   17 ar
  26   17   18 ar
  27   17   36 1
  28   18   19 ar
  29   18   21 1
  30   19   20 ar
  31   19   37 1
  32   20   38 1
  33   21   22 ar
  34   21   26 ar
  35   22   23 ar
  36   22   39 1
  37   23   24 ar
  38   23   40 1
  39   24   25 ar
  40   24   27 1
  41   25   26 ar
  42   26   41 1
  43   27   28 1
  44   27   29 1
  45   28   42 1
  46   28   43 1
  47   28   44 1
  48   29   45 1
  49   29   46 1
  50   29   47 1

#	End of record

