#	Name: ASD02508359
#	Creating user name:	WinNT
#	Creation time:	15. 06. 2019 20:24

#	Modifying user name:	WinNT
#	Modification time:	15. 06. 2019 20:24

#	Program:	/corina/corina34_cracker 3.40 0067  02.08.2006

@<TRIPOS>MOLECULE
ASD02508359
  50   53    0    0    0
SMALL
NO_CHARGES


@<TRIPOS>ATOM
   1 C1             2.2890    -4.9153    -3.4358 C.2     
   2 C2             1.7507    -4.5827    -2.1760 C.2     
   3 C3             1.9675    -3.2670    -1.9775 C.2     
   4 N4             2.6216    -2.7727    -3.0706 N.pl3   
   5 C5             2.8151    -3.7908    -3.9612 C.2     
   6 C6             3.0252    -1.4460    -3.2484 C.ar    
   7 C7             2.7028    -0.7798    -4.4258 C.ar    
   8 N8             3.7055    -0.8343    -2.2930 N.ar    
   9 C9             4.1050     0.4166    -2.4196 C.ar    
  10 C10            3.8248     1.1374    -3.5637 C.ar    
  11 C11            3.1086     0.5344    -4.5884 C.ar    
  12 S12            1.4896    -2.3443    -0.5546 S.o2    
  13 O13            2.5261    -2.5166     0.4022 O.2     
  14 O14            1.0698    -1.0707    -1.0246 O.2     
  15 N15            0.1448    -3.0767     0.0758 N.am    
  16 C16           -1.0337    -3.1411    -0.6756 C.ar    
  17 C17           -1.7549    -4.3265    -0.7364 C.ar    
  18 C18           -1.4857    -2.0184    -1.3560 C.ar    
  19 C19           -2.6496    -2.0821    -2.0974 C.ar    
  20 C20           -3.3672    -3.2668    -2.1621 C.ar    
  21 C21           -2.9188    -4.3890    -1.4783 C.ar    
  22 Cl22          -3.8177    -5.8719    -1.5597 Cl      
  23 Cl23           1.8047    -1.5844    -5.6747 Cl      
  24 O24           -4.5132    -3.3284    -2.8920 O.3     
  25 C25           -5.6889    -3.1104    -2.2511 C.ar    
  26 N26           -5.6986    -2.9426    -0.9388 N.ar    
  27 C27           -6.8705    -3.0600    -2.9797 C.ar    
  28 C28           -8.0632    -2.8369    -2.3138 C.ar    
  29 C29           -8.0313    -2.6715    -0.9361 C.ar    
  30 C30           -6.8193    -2.7283    -0.2767 C.ar    
  31 C31            4.2870     2.5657    -3.6959 C.3     
  32 F32            4.9769     2.9417    -2.5384 F       
  33 F33            5.1352     2.6809    -4.8025 F       
  34 F34            3.1779     3.4005    -3.8697 F       
  35 C35           -9.3050    -2.4259    -0.1689 C.3     
  36 F36           -9.8536    -3.6500     0.2282 F       
  37 F37           -9.0261    -1.6510     0.9620 F       
  38 F38          -10.2176    -1.7486    -0.9848 F       
  39 H39            2.2847    -5.8932    -3.8942 H       
  40 H40            1.2552    -5.2584    -1.4946 H       
  41 H41            3.3052    -3.7089    -4.9201 H       
  42 H42            4.6582     0.8831    -1.6179 H       
  43 H43            2.8765     1.0763    -5.4933 H       
  44 H44            0.1741    -3.4611     0.9659 H       
  45 H45           -1.4058    -5.1992    -0.2044 H       
  46 H46           -0.9276    -1.0952    -1.3053 H       
  47 H47           -3.0010    -1.2086    -2.6265 H       
  48 H48           -6.8586    -3.1927    -4.0514 H       
  49 H49           -8.9974    -2.7923    -2.8539 H       
  50 H50           -6.7891    -2.6005     0.7953 H       
@<TRIPOS>BOND
   1    1    2 1
   2    1    5 2
   3    1   39 1
   4    2    3 2
   5    2   40 1
   6    3    4 1
   7    3   12 1
   8    4    5 1
   9    4    6 1
  10    5   41 1
  11    6    7 ar
  12    6    8 ar
  13    7   23 1
  14    7   11 ar
  15    8    9 ar
  16    9   10 ar
  17    9   42 1
  18   10   11 ar
  19   10   31 1
  20   11   43 1
  21   12   13 2
  22   12   14 2
  23   12   15 am
  24   15   16 1
  25   15   44 1
  26   16   17 ar
  27   16   18 ar
  28   17   21 ar
  29   17   45 1
  30   18   19 ar
  31   18   46 1
  32   19   20 ar
  33   19   47 1
  34   20   21 ar
  35   20   24 1
  36   21   22 1
  37   24   25 1
  38   25   26 ar
  39   25   27 ar
  40   26   30 ar
  41   27   28 ar
  42   27   48 1
  43   28   29 ar
  44   28   49 1
  45   29   30 ar
  46   29   35 1
  47   30   50 1
  48   31   32 1
  49   31   33 1
  50   31   34 1
  51   35   36 1
  52   35   37 1
  53   35   38 1

#	End of record

