#	Name: ASD01883481
#	Creating user name:	WinNT
#	Creation time:	15. 06. 2019 19:46

#	Modifying user name:	WinNT
#	Modification time:	15. 06. 2019 19:46

#	Program:	/corina/corina34_cracker 3.40 0067  02.08.2006

@<TRIPOS>MOLECULE
ASD01883481
  62   65    0    0    0
SMALL
NO_CHARGES


@<TRIPOS>ATOM
   1 F1             0.5153     7.2930    -1.8085 F       
   2 N2            -0.0080     1.3271     0.0354 N.am    
   3 C3            -0.3623     0.6471    -1.0708 C.2     
   4 C4            -1.5938    -0.0487    -1.1070 C.2     
   5 C5            -2.4239    -0.0108     0.0261 C.2     
   6 C6            -1.9981     0.7175     1.1524 C.2     
   7 C7            -0.8092     1.3586     1.1319 C.2     
   8 O8             0.3768     0.6309    -2.0406 O.2     
   9 C9            -1.9868    -0.7769    -2.2757 C.1     
  10 N10           -2.2985    -1.3546    -3.2029 N.1     
  11 N11           -3.6309    -0.6732     0.0341 N.pl3   
  12 C12           -4.8919     0.0702     0.1608 C.3     
  13 C13           -5.6944    -0.5155     1.3268 C.3     
  14 C14           -5.8708    -2.0207     1.1144 C.3     
  15 C15           -4.4985    -2.6976     1.0843 C.3     
  16 C16           -3.6827    -2.1362    -0.0901 C.3     
  17 C17            1.2701     2.0427     0.0594 C.3     
  18 C18            1.0676     3.4497    -0.4412 C.ar    
  19 C19            0.7492     4.4598     0.4473 C.ar    
  20 C20            0.5637     5.7504    -0.0105 C.ar    
  21 C21            0.6969     6.0317    -1.3597 C.ar    
  22 C22            1.0158     5.0192    -2.2486 C.ar    
  23 C23            1.2060     3.7303    -1.7877 C.ar    
  24 N24           -6.6684    -2.5800     2.2139 N.3     
  25 C25           -6.9591    -4.0014     1.9834 C.3     
  26 C26           -7.9732    -4.4767     2.9917 C.ar    
  27 C27           -9.3230    -4.3925     2.7068 C.ar    
  28 C28          -10.2533    -4.8285     3.6319 C.ar    
  29 C29           -9.8335    -5.3491     4.8415 C.ar    
  30 C30           -8.4833    -5.4342     5.1261 C.ar    
  31 C31           -7.5531    -5.0023     4.1996 C.ar    
  32 C32           -5.9962    -2.3829     3.5051 C.3     
  33 C33          -11.7251    -4.7357     3.3216 C.3     
  34 F34          -12.1444    -5.9133     2.6934 F       
  35 F35          -12.4421    -4.5604     4.5100 F       
  36 F36          -11.9551    -3.6473     2.4733 F       
  37 H37           -2.6200     0.7608     2.0343 H       
  38 H38           -0.4930     1.9144     2.0022 H       
  39 H39           -4.6785     1.1212     0.3555 H       
  40 H40           -5.4656    -0.0236    -0.7613 H       
  41 H41           -5.1602    -0.3399     2.2606 H       
  42 H42           -6.6729    -0.0373     1.3715 H       
  43 H43           -6.3831    -2.1964     0.1685 H       
  44 H44           -3.9756    -2.5016     2.0204 H       
  45 H45           -4.6258    -3.7726     0.9564 H       
  46 H46           -4.1593    -2.4118    -1.0309 H       
  47 H47           -2.6709    -2.5405    -0.0585 H       
  48 H48            1.6512     2.0716     1.0802 H       
  49 H49            1.9865     1.5287    -0.5814 H       
  50 H50            0.6450     4.2401     1.4996 H       
  51 H51            0.3146     6.5393     0.6837 H       
  52 H52            1.1199     5.2374    -3.3012 H       
  53 H53            1.4548     2.9403    -2.4809 H       
  54 H54           -7.3581    -4.1321     0.9775 H       
  55 H55           -6.0424    -4.5815     2.0888 H       
  56 H56           -9.6510    -3.9857     1.7616 H       
  57 H57          -10.5603    -5.6890     5.5644 H       
  58 H58           -8.1553    -5.8406     6.0715 H       
  59 H59           -6.4984    -5.0688     4.4219 H       
  60 H60           -5.8556    -1.3167     3.6825 H       
  61 H61           -6.6081    -2.8062     4.3017 H       
  62 H62           -5.0261    -2.8796     3.4893 H       
@<TRIPOS>BOND
   1    1   21 1
   2    2    3 am
   3    2   17 1
   4    2    7 1
   5    3    4 1
   6    3    8 2
   7    4    5 2
   8    4    9 1
   9    5    6 1
  10    5   11 1
  11    6    7 2
  12    6   37 1
  13    7   38 1
  14    9   10 3
  15   11   12 1
  16   11   16 1
  17   12   13 1
  18   12   39 1
  19   12   40 1
  20   13   14 1
  21   13   41 1
  22   13   42 1
  23   14   15 1
  24   14   24 1
  25   14   43 1
  26   15   16 1
  27   15   44 1
  28   15   45 1
  29   16   46 1
  30   16   47 1
  31   17   18 1
  32   17   48 1
  33   17   49 1
  34   18   19 ar
  35   18   23 ar
  36   19   20 ar
  37   19   50 1
  38   20   21 ar
  39   20   51 1
  40   21   22 ar
  41   22   23 ar
  42   22   52 1
  43   23   53 1
  44   24   25 1
  45   24   32 1
  46   25   26 1
  47   25   54 1
  48   25   55 1
  49   26   27 ar
  50   26   31 ar
  51   27   28 ar
  52   27   56 1
  53   28   29 ar
  54   28   33 1
  55   29   30 ar
  56   29   57 1
  57   30   31 ar
  58   30   58 1
  59   31   59 1
  60   32   60 1
  61   32   61 1
  62   32   62 1
  63   33   34 1
  64   33   35 1
  65   33   36 1

#	End of record

