#	Name: ASD01881977
#	Creating user name:	WinNT
#	Creation time:	15. 06. 2019 19:43

#	Modifying user name:	WinNT
#	Modification time:	15. 06. 2019 19:43

#	Program:	/corina/corina34_cracker 3.40 0067  02.08.2006

@<TRIPOS>MOLECULE
ASD01881977
  41   43    0    0    0
SMALL
NO_CHARGES


@<TRIPOS>ATOM
   1 N1             0.8514    -0.6329    -0.6263 N.pl3   
   2 N2             1.1921    -1.8610    -0.4389 N.2     
   3 N3             2.4501    -1.9752    -0.1944 N.2     
   4 C4             3.0191    -0.7529    -0.2128 C.ar    
   5 C5             1.9750     0.1475    -0.4973 C.ar    
   6 C6             4.3154    -0.2672    -0.0216 C.ar    
   7 C7             4.5529     1.0899    -0.1146 C.ar    
   8 C8             3.5113     1.9707    -0.3966 C.ar    
   9 C9             2.2391     1.5081    -0.5865 C.ar    
  10 O10            5.8118     1.5697     0.0707 O.3     
  11 C11            5.9900     2.9833    -0.0390 C.3     
  12 C12            7.4606     3.3319     0.1990 C.3     
  13 C13            7.6754     4.8277    -0.0408 C.3     
  14 C14            9.1619     5.1593     0.1050 C.3     
  15 O15            7.8147     3.0096     1.5453 O.3     
  16 C16            9.0137     2.2410     1.6629 C.3     
  17 C17           -0.4986    -0.1523    -0.9305 C.3     
  18 C18           -1.2360     0.1566     0.3741 C.3     
  19 C19           -2.6272     0.7843     0.2676 C.3     
  20 C20           -2.4779    -0.6764     0.6979 C.3     
  21 Br21           5.7328    -1.4587     0.3620 Br      
  22 H22            3.7109     3.0298    -0.4662 H       
  23 H23            1.4394     2.2004    -0.8049 H       
  24 H24            5.6958     3.3103    -1.0363 H       
  25 H25            5.3724     3.4862     0.7051 H       
  26 H26            8.0852     2.7605    -0.4877 H       
  27 H27            7.3424     5.0861    -1.0460 H       
  28 H28            7.1024     5.3987     0.6898 H       
  29 H29            9.7246     4.6605    -0.6841 H       
  30 H30            9.3032     6.2372     0.0263 H       
  31 H31            9.5171     4.8163     1.0768 H       
  32 H32            8.9251     1.3356     1.0624 H       
  33 H33            9.8594     2.8305     1.3089 H       
  34 H34            9.1710     1.9705     2.7070 H       
  35 H35           -0.4346     0.7527    -1.5347 H       
  36 H36           -1.0419    -0.9197    -1.4819 H       
  37 H37           -0.6063     0.4669     1.2079 H       
  38 H38           -2.9130     1.5073     1.0316 H       
  39 H39           -3.0172     0.9772    -0.7318 H       
  40 H40           -2.7696    -1.4444    -0.0185 H       
  41 H41           -2.6653    -0.9143     1.7449 H       
@<TRIPOS>BOND
   1    1    2 1
   2    1    5 1
   3    1   17 1
   4    2    3 2
   5    3    4 1
   6    4    5 ar
   7    4    6 ar
   8    5    9 ar
   9    6    7 ar
  10    6   21 1
  11    7    8 ar
  12    7   10 1
  13    8    9 ar
  14    8   22 1
  15    9   23 1
  16   10   11 1
  17   11   12 1
  18   11   24 1
  19   11   25 1
  20   12   13 1
  21   12   15 1
  22   12   26 1
  23   13   14 1
  24   13   27 1
  25   13   28 1
  26   14   29 1
  27   14   30 1
  28   14   31 1
  29   15   16 1
  30   16   32 1
  31   16   33 1
  32   16   34 1
  33   17   18 1
  34   17   35 1
  35   17   36 1
  36   18   19 1
  37   18   20 1
  38   18   37 1
  39   19   20 1
  40   19   38 1
  41   19   39 1
  42   20   40 1
  43   20   41 1

#	End of record

