#	Name: ASD03730676
#	Creating user name:	WinNT
#	Creation time:	15. 06. 2019 20:44

#	Modifying user name:	WinNT
#	Modification time:	15. 06. 2019 20:44

#	Program:	/corina/corina34_cracker 3.40 0067  02.08.2006

@<TRIPOS>MOLECULE
ASD03730676
  60   67    0    0    0
SMALL
NO_CHARGES


@<TRIPOS>ATOM
   1 O1            -0.4533     1.1587     1.2497 O.3     
   2 C2            -0.3889    -0.2779     1.3199 C.3     
   3 O3             0.7000    -0.6152     0.4405 O.3     
   4 C4             1.5234     0.4744     0.4444 C.ar    
   5 C5             0.8129     1.5654     0.9395 C.ar    
   6 C6             2.8440     0.6252     0.0614 C.ar    
   7 C7             3.4706     1.8635     0.1634 C.ar    
   8 C8             2.7470     2.9491     0.6476 C.ar    
   9 C9             1.4322     2.8001     1.0371 C.ar    
  10 O10            4.7529     2.2188    -0.1362 O.3     
  11 C11            3.6735     4.1347     0.6069 C.3     
  12 C12            4.8274     3.6500    -0.2817 C.3     
  13 N13            3.1051     6.3160     0.9825 N.am    
  14 C14            3.0085     5.3565     0.0407 C.2     
  15 C15            4.1485     4.5372     1.9711 C.ar    
  16 C16            4.8269     3.8749     2.9851 C.ar    
  17 C17            5.1310     4.5461     4.1693 C.ar    
  18 C18            4.7544     5.8655     4.3241 C.ar    
  19 C19            4.0800     6.5234     3.3156 C.ar    
  20 C20            3.7693     5.8659     2.1265 C.ar    
  21 O21            2.4870     5.4595    -1.0495 O.2     
  22 C22            2.5764     7.6731     0.8246 C.3     
  23 O23            0.0560     7.4881     0.5893 O.3     
  24 C24            1.1556     7.7200     1.3247 C.2     
  25 C25            0.7736     8.0007     2.5836 C.2     
  26 C26           -0.6385     7.9340     2.6077 C.2     
  27 C27           -1.0349     7.6165     1.3621 C.2     
  28 C28           -2.4612     7.4356     0.9104 C.3     
  29 F29           -2.9681     8.6609     0.4645 F       
  30 F30           -2.5054     6.5050    -0.1332 F       
  31 F31           -3.2342     6.9729     1.9808 F       
  32 N32            6.5045     0.8565     1.6195 N.ar    
  33 C33            6.1327     2.0986     1.7975 C.ar    
  34 C34            5.2279     2.4573     2.8095 C.ar    
  35 C35            4.7120     1.4772     3.6438 C.ar    
  36 C36            5.1245     0.1493     3.4355 C.ar    
  37 C37            4.6447    -0.8973     4.2402 C.ar    
  38 C38            5.0658    -2.1714     4.0090 C.ar    
  39 C39            5.9673    -2.4507     2.9843 C.ar    
  40 C40            6.4524    -1.4608     2.1856 C.ar    
  41 C41            6.0417    -0.1327     2.3918 C.ar    
  42 H42           -0.1736    -0.6024     2.3380 H       
  43 H43           -1.3194    -0.7208     0.9645 H       
  44 H44            3.3926    -0.2239    -0.3189 H       
  45 H45            0.8845     3.6486     1.4197 H       
  46 H46            5.7825     4.0271     0.0842 H       
  47 H47            4.6663     3.9426    -1.3192 H       
  48 H48            5.6585     4.0361     4.9618 H       
  49 H49            4.9889     6.3862     5.2408 H       
  50 H50            3.7904     7.5553     3.4489 H       
  51 H51            3.1869     8.3700     1.3988 H       
  52 H52            2.6001     7.9520    -0.2289 H       
  53 H53            1.4213     8.2320     3.4163 H       
  54 H54           -1.2764     8.1048     3.4622 H       
  55 H55            6.5316     2.8660     1.1507 H       
  56 H56            4.0148     1.7263     4.4301 H       
  57 H57            3.9461    -0.6926     5.0380 H       
  58 H58            4.6965    -2.9756     4.6281 H       
  59 H59            6.2869    -3.4694     2.8211 H       
  60 H60            7.1510    -1.6953     1.3961 H       
@<TRIPOS>BOND
   1    1    2 1
   2    1    5 1
   3    2    3 1
   4    2   42 1
   5    2   43 1
   6    3    4 1
   7    4    5 ar
   8    4    6 ar
   9    5    9 ar
  10    6    7 ar
  11    6   44 1
  12    7    8 ar
  13    7   10 1
  14    8    9 ar
  15    8   11 1
  16    9   45 1
  17   10   12 1
  18   11   12 1
  19   11   14 1
  20   11   15 1
  21   12   46 1
  22   12   47 1
  23   13   14 am
  24   13   20 1
  25   13   22 1
  26   14   21 2
  27   15   16 ar
  28   15   20 ar
  29   16   17 ar
  30   16   34 1
  31   17   18 ar
  32   17   48 1
  33   18   19 ar
  34   18   49 1
  35   19   20 ar
  36   19   50 1
  37   22   24 1
  38   22   51 1
  39   22   52 1
  40   23   24 1
  41   23   27 1
  42   24   25 2
  43   25   26 1
  44   25   53 1
  45   26   27 2
  46   26   54 1
  47   27   28 1
  48   28   29 1
  49   28   30 1
  50   28   31 1
  51   32   33 ar
  52   32   41 ar
  53   33   34 ar
  54   33   55 1
  55   34   35 ar
  56   35   36 ar
  57   35   56 1
  58   36   37 ar
  59   36   41 ar
  60   37   38 ar
  61   37   57 1
  62   38   39 ar
  63   38   58 1
  64   39   40 ar
  65   39   59 1
  66   40   41 ar
  67   40   60 1

#	End of record

