#	Name: ASD03092602
#	Creating user name:	WinNT
#	Creation time:	15. 06. 2019 20:32

#	Modifying user name:	WinNT
#	Modification time:	15. 06. 2019 20:32

#	Program:	/corina/corina34_cracker 3.40 0067  02.08.2006

@<TRIPOS>MOLECULE
ASD03092602
  40   43    0    0    0
SMALL
NO_CHARGES


@<TRIPOS>ATOM
   1 C1            -0.0173     1.4248     0.0099 C.3     
   2 O2             0.0021    -0.0041     0.0020 O.3     
   3 C3             0.6060    -0.6073    -1.0561 C.ar    
   4 C4             1.1727     0.1617    -2.0621 C.ar    
   5 C5             1.7859    -0.4505    -3.1372 C.ar    
   6 C6             1.8355    -1.8358    -3.2111 C.ar    
   7 C7             1.2687    -2.6050    -2.2041 C.ar    
   8 C8             0.6604    -1.9918    -1.1267 C.ar    
   9 N9             2.4581    -2.4585    -4.3037 N.pl3   
  10 C10            2.2400    -2.1837    -5.6223 C.2     
  11 N11            2.9869    -2.9484    -6.3663 N.2     
  12 C12            3.7294    -3.7600    -5.5786 C.ar    
  13 C13            4.6860    -4.7635    -5.8142 C.ar    
  14 N14            5.2322    -5.3762    -4.7657 N.ar    
  15 C15            4.8900    -5.0558    -3.5329 C.ar    
  16 N16            3.9993    -4.1230    -3.2645 N.ar    
  17 C17            3.4042    -3.4534    -4.2429 C.ar    
  18 C18            5.0761    -5.1302    -7.1946 C.ar    
  19 C19            4.4992    -4.4760    -8.2826 C.ar    
  20 C20            4.8666    -4.8221    -9.5668 C.ar    
  21 C21            5.8055    -5.8161    -9.7779 C.ar    
  22 C22            6.3823    -6.4704    -8.7048 C.ar    
  23 C23            6.0280    -6.1294    -7.4128 C.ar    
  24 F24            6.5964    -6.7642    -6.3645 F       
  25 C25            6.2010    -6.1879   -11.1838 C.3     
  26 F26            7.2854    -5.4011   -11.5866 F       
  27 F27            6.5641    -7.5383   -11.2244 F       
  28 F28            5.1208    -5.9693   -12.0454 F       
  29 H29            1.0053     1.8021     0.0021 H       
  30 H30           -0.5445     1.7859    -0.8732 H       
  31 H31           -0.5275     1.7763     0.9067 H       
  32 H32            1.1340     1.2395    -2.0045 H       
  33 H33            2.2264     0.1483    -3.9207 H       
  34 H34            1.3071    -3.6828    -2.2612 H       
  35 H35            0.2233    -2.5901    -0.3410 H       
  36 H36            1.5491    -1.4416    -5.9943 H       
  37 H37            5.3578    -5.5786    -2.7118 H       
  38 H38            3.7658    -3.6999    -8.1204 H       
  39 H39            4.4197    -4.3158   -10.4096 H       
  40 H40            7.1141    -7.2460    -8.8763 H       
@<TRIPOS>BOND
   1    1    2 1
   2    1   29 1
   3    1   30 1
   4    1   31 1
   5    2    3 1
   6    3    8 ar
   7    3    4 ar
   8    4    5 ar
   9    4   32 1
  10    5    6 ar
  11    5   33 1
  12    6    7 ar
  13    6    9 1
  14    7    8 ar
  15    7   34 1
  16    8   35 1
  17    9   17 1
  18    9   10 1
  19   10   11 2
  20   10   36 1
  21   11   12 1
  22   12   17 ar
  23   12   13 ar
  24   13   14 ar
  25   13   18 1
  26   14   15 ar
  27   15   16 ar
  28   15   37 1
  29   16   17 ar
  30   18   23 ar
  31   18   19 ar
  32   19   20 ar
  33   19   38 1
  34   20   21 ar
  35   20   39 1
  36   21   22 ar
  37   21   25 1
  38   22   23 ar
  39   22   40 1
  40   23   24 1
  41   25   26 1
  42   25   27 1
  43   25   28 1

#	End of record

