#	Name: ASD01881456
#	Creating user name:	WinNT
#	Creation time:	15. 06. 2019 19:42

#	Modifying user name:	WinNT
#	Modification time:	15. 06. 2019 19:42

#	Program:	/corina/corina34_cracker 3.40 0067  02.08.2006

@<TRIPOS>MOLECULE
ASD01881456
  53   56    0    0    0
SMALL
NO_CHARGES


@<TRIPOS>ATOM
   1 C1             0.1534     1.4488     0.0158 C.3     
   2 O2            -1.6939    -4.2480    -3.1830 O.3     
   3 C3             1.1196     1.3241     4.0959 C.ar    
   4 C4             1.0874     0.6510     2.8927 C.ar    
   5 C5             0.0005     1.3350     4.9174 C.ar    
   6 C6            -1.1560     0.6677     4.5303 C.ar    
   7 C7            -1.1944    -0.0073     3.3282 C.ar    
   8 C8            -0.0710    -0.0196     2.5009 C.ar    
   9 C9            -0.1087    -0.7432     1.2087 C.2     
  10 C10           -0.0020    -0.0502     0.0174 C.2     
  11 C11           -0.2485    -2.1523     1.1819 C.2     
  12 C12           -0.2825    -2.8078     0.0067 C.2     
  13 N13           -0.1835    -2.1309    -1.1748 N.pl3   
  14 C14           -0.0412    -0.7643    -1.1922 C.2     
  15 C15           -0.1873    -2.5205    -2.4797 C.2     
  16 N16           -0.0608    -1.4446    -3.2126 N.2     
  17 N17            0.0273    -0.4018    -2.4640 N.2     
  18 C18           -0.3137    -3.9340    -2.9868 C.3     
  19 Cl19          -2.5529     0.6842     5.5609 Cl      
  20 O20            0.0359     1.9988     6.1022 O.3     
  21 C21            0.3669     1.2963     7.2174 C.ar    
  22 C22            0.4821     1.9356     8.4433 C.ar    
  23 C23           -3.4293    -5.7974    -3.8374 C.3     
  24 C24           -1.9256    -5.5730    -3.6654 C.3     
  25 N25            0.8030     1.2581     9.5277 N.ar    
  26 C26            1.0258    -0.0411     9.4944 C.ar    
  27 C27            0.9306    -0.7475     8.3097 C.ar    
  28 C28            0.5896    -0.0756     7.1472 C.ar    
  29 C29            1.3896    -0.7657    10.7647 C.3     
  30 C30            0.2383     3.4198     8.5362 C.3     
  31 H31            1.2126     1.7043     0.0453 H       
  32 H32           -0.2944     1.8595    -0.8891 H       
  33 H33           -0.3456     1.8667     0.8901 H       
  34 H34            2.0180     1.8397     4.4015 H       
  35 H35            1.9585     0.6434     2.2542 H       
  36 H36           -2.0928    -0.5259     3.0277 H       
  37 H37           -0.3276    -2.7028     2.1077 H       
  38 H38           -0.3895    -3.8824    -0.0017 H       
  39 H39            0.1153    -4.6213    -2.2577 H       
  40 H40            0.2187    -4.0294    -3.9332 H       
  41 H41           -3.6060    -6.8081    -4.2054 H       
  42 H42           -3.9282    -5.6680    -2.8770 H       
  43 H43           -3.8248    -5.0760    -4.5525 H       
  44 H44           -1.4267    -5.7024    -4.6258 H       
  45 H45           -1.5301    -6.2944    -2.9503 H       
  46 H46            1.1154    -1.8114     8.2916 H       
  47 H47            0.5076    -0.6020     6.2077 H       
  48 H48            0.4818    -1.1158    11.2560 H       
  49 H49            2.0261    -1.6181    10.5272 H       
  50 H50            1.9240    -0.0872    11.4296 H       
  51 H51           -0.8161     3.6026     8.7434 H       
  52 H52            0.8443     3.8380     9.3399 H       
  53 H53            0.5103     3.8925     7.5924 H       
@<TRIPOS>BOND
   1    1   10 1
   2    1   31 1
   3    1   32 1
   4    1   33 1
   5    2   18 1
   6    2   24 1
   7    3    4 ar
   8    3    5 ar
   9    3   34 1
  10    4    8 ar
  11    4   35 1
  12    5    6 ar
  13    5   20 1
  14    6    7 ar
  15    6   19 1
  16    7    8 ar
  17    7   36 1
  18    8    9 1
  19    9   10 2
  20    9   11 1
  21   10   14 1
  22   11   12 2
  23   11   37 1
  24   12   13 1
  25   12   38 1
  26   13   14 1
  27   13   15 1
  28   14   17 2
  29   15   16 2
  30   15   18 1
  31   16   17 1
  32   18   39 1
  33   18   40 1
  34   20   21 1
  35   21   22 ar
  36   21   28 ar
  37   22   25 ar
  38   22   30 1
  39   23   24 1
  40   23   41 1
  41   23   42 1
  42   23   43 1
  43   24   44 1
  44   24   45 1
  45   25   26 ar
  46   26   27 ar
  47   26   29 1
  48   27   28 ar
  49   27   46 1
  50   28   47 1
  51   29   48 1
  52   29   49 1
  53   29   50 1
  54   30   51 1
  55   30   52 1
  56   30   53 1

#	End of record

