#	Name: ASD09800054
#	Creating user name:	WinNT
#	Creation time:	15. 06. 2019 21:24

#	Modifying user name:	WinNT
#	Modification time:	15. 06. 2019 21:24

#	Program:	/corina/corina34_cracker 3.40 0067  02.08.2006

@<TRIPOS>MOLECULE
ASD09800054
  68   73    0    0    0
SMALL
NO_CHARGES


@<TRIPOS>ATOM
   1 C1            -2.8942    -0.6006     4.0874 C.2     
   2 N2            -3.7583    -1.4743     4.5713 N.2     
   3 C3            -4.7806    -1.9240     3.8321 C.2     
   4 C4            -4.9732    -1.5075     2.5673 C.2     
   5 C5            -3.0525    -0.1270     2.7693 C.2     
   6 C6            -2.3565     0.7656     1.9614 C.2     
   7 N7            -4.1057    -0.5970     2.0067 N.pl3   
   8 C8            -4.0285     0.0059     0.8068 C.2     
   9 N9            -2.9973     0.8110     0.7817 N.2     
  10 C10           -1.1423     1.5211     2.3308 C.ar    
  11 C11            0.0384     3.6428     2.6213 C.ar    
  12 C12            1.1809     2.9268     3.0384 C.ar    
  13 C13            1.1470     1.5484     3.0891 C.ar    
  14 C14           -0.0001     0.8498     2.7400 C.ar    
  15 C15           -1.1348     2.9363     2.2638 C.ar    
  16 N16            2.3449     3.6116     3.3934 N.am    
  17 C17            3.5350     2.9801     3.3600 C.2     
  18 N18            4.6431     3.6068     3.8027 N.am    
  19 O19            3.6091     1.8454     2.9306 O.2     
  20 N20           -1.8449    -0.1492     4.8703 N.pl3   
  21 C21           -4.9837    -0.2154    -0.3376 C.3     
  22 C22           -6.4706     0.0313    -0.0746 C.3     
  23 C23           -5.6718     1.0154    -0.9316 C.3     
  24 C24           -4.6145    -1.3499    -1.2954 C.3     
  25 C25            0.0450     5.0453     2.5538 C.ar    
  26 C26           -2.2687     3.6490     1.8492 C.ar    
  27 C27           -2.2282     5.0099     1.7955 C.ar    
  28 C28           -1.0741     5.7060     2.1467 C.ar    
  29 C29            5.8333     2.9753     3.7693 C.2     
  30 N30            6.9413     3.6019     4.2120 N.am    
  31 O31            5.9073     1.8406     3.3399 O.2     
  32 C32            8.1913     2.9855     4.0861 C.ar    
  33 C33            6.8371     4.9284     4.8250 C.3     
  34 C34            9.9929     2.2045     2.7098 C.ar    
  35 C35            8.7586     2.8130     2.8306 C.ar    
  36 C36            8.8696     2.5502     5.2172 C.ar    
  37 C37           10.1031     1.9427     5.0897 C.ar    
  38 C38           10.6632     1.7676     3.8373 C.ar    
  39 C39           10.8401     1.4705     6.3165 C.3     
  40 F40           10.4788     0.1485     6.5975 F       
  41 F41           12.2185     1.5386     6.0875 F       
  42 F42           10.5070     2.2860     7.4033 F       
  43 H43           -5.4670    -2.6387     4.2617 H       
  44 H44           -5.8057    -1.8866     1.9933 H       
  45 H45            2.0244     1.0057     3.4086 H       
  46 H46           -0.0033    -0.2292     2.7879 H       
  47 H47            2.2968     4.5419     3.6640 H       
  48 H48            4.5840     4.5123     4.1453 H       
  49 H49           -1.7046    -0.5216     5.7550 H       
  50 H50           -1.2501     0.5394     4.5341 H       
  51 H51           -7.1858    -0.6144    -0.5841 H       
  52 H52           -6.7579     0.3536     0.9263 H       
  53 H53           -5.4336     1.9851    -0.4945 H       
  54 H54           -5.8614     1.0170    -2.0049 H       
  55 H55           -4.4631    -2.2688    -0.7290 H       
  56 H56           -5.4206    -1.4951    -2.0146 H       
  57 H57           -3.6967    -1.0942    -1.8250 H       
  58 H58            0.9334     5.5974     2.8229 H       
  59 H59           -3.1700     3.1218     1.5733 H       
  60 H60           -3.1031     5.5564     1.4757 H       
  61 H61           -1.0667     6.7848     2.0959 H       
  62 H62            6.6892     4.8215     5.8996 H       
  63 H63            7.7538     5.4880     4.6383 H       
  64 H64            5.9909     5.4628     4.3931 H       
  65 H65           10.4345     2.0697     1.7335 H       
  66 H66            8.2353     3.1538     1.9495 H       
  67 H67            8.4329     2.6870     6.1955 H       
  68 H68           11.6279     1.2919     3.7402 H       
@<TRIPOS>BOND
   1    1    2 2
   2    1   20 1
   3    1    5 1
   4    2    3 1
   5    3    4 2
   6    3   43 1
   7    4    7 1
   8    4   44 1
   9    5    7 1
  10    5    6 2
  11    6    9 1
  12    6   10 1
  13    7    8 1
  14    8    9 2
  15    8   21 1
  16   10   15 ar
  17   10   14 ar
  18   11   12 ar
  19   11   15 ar
  20   11   25 ar
  21   12   13 ar
  22   12   16 1
  23   13   14 ar
  24   13   45 1
  25   14   46 1
  26   15   26 ar
  27   16   17 am
  28   16   47 1
  29   17   18 am
  30   17   19 2
  31   18   29 am
  32   18   48 1
  33   20   49 1
  34   20   50 1
  35   21   22 1
  36   21   23 1
  37   21   24 1
  38   22   23 1
  39   22   51 1
  40   22   52 1
  41   23   53 1
  42   23   54 1
  43   24   55 1
  44   24   56 1
  45   24   57 1
  46   25   28 ar
  47   25   58 1
  48   26   27 ar
  49   26   59 1
  50   27   28 ar
  51   27   60 1
  52   28   61 1
  53   29   30 am
  54   29   31 2
  55   30   32 1
  56   30   33 1
  57   32   36 ar
  58   32   35 ar
  59   33   62 1
  60   33   63 1
  61   33   64 1
  62   34   35 ar
  63   34   38 ar
  64   34   65 1
  65   35   66 1
  66   36   37 ar
  67   36   67 1
  68   37   38 ar
  69   37   39 1
  70   38   68 1
  71   39   40 1
  72   39   41 1
  73   39   42 1

#	End of record

