#	Name: ASD00451022
#	Creating user name:	WinNT
#	Creation time:	15. 06. 2019 18:36

#	Modifying user name:	WinNT
#	Modification time:	15. 06. 2019 18:36

#	Program:	/corina/corina34_cracker 3.40 0067  02.08.2006

@<TRIPOS>MOLECULE
ASD00451022
  61   66    0    0    0
SMALL
NO_CHARGES


@<TRIPOS>ATOM
   1 C1            -0.0634     1.4568     0.0885 C.ar    
   2 C2            -0.0960     0.0708     0.1103 C.ar    
   3 N3             1.1629     2.1289     0.0551 N.am    
   4 C4            -1.2617     2.1822     0.0941 C.ar    
   5 C5            -1.3068    -0.5938     0.1433 C.ar    
   6 C6             2.2509     1.5208    -0.4575 C.2     
   7 C7            -2.4792     1.5047     0.1216 C.ar    
   8 C8            -2.4976     0.1203     0.1543 C.ar    
   9 O9             2.1853     0.3622    -0.8207 O.2     
  10 N10            3.4117     2.1968    -0.5677 N.am    
  11 O11           -3.6849    -0.5415     0.1807 O.3     
  12 C12            4.5719     1.5328    -0.9858 C.ar    
  13 C13           -4.0823    -1.0914     1.3570 C.ar    
  14 C14            4.6942     0.1630    -0.8008 C.ar    
  15 C15            5.6017     2.2440    -1.5925 C.ar    
  16 C16           -5.3294    -1.6992     1.4782 C.ar    
  17 C17           -3.2516    -1.0686     2.4751 C.ar    
  18 C18            5.8398    -0.4896    -1.2147 C.ar    
  19 C19            6.7451     1.5846    -2.0042 C.ar    
  20 N20           -6.3885    -1.9067     0.5967 N.am    
  21 C21           -5.7035    -2.2535     2.7026 C.ar    
  22 C22           -3.6907    -1.6379     3.6534 C.ar    
  23 C23            6.8644     0.2199    -1.8128 C.ar    
  24 C24           -7.3633    -2.5591     1.2586 C.2     
  25 N25           -6.9789    -2.7767     2.5301 N.am    
  26 N26           -4.8804    -2.2023     3.7390 N.ar    
  27 O27           -8.4313    -2.8949     0.7817 O.2     
  28 H28            1.2302     3.0327     0.4010 H       
  29 H29            3.4436     3.1432    -0.3573 H       
  30 H30           -6.4186    -1.6292    -0.3323 H       
  31 H31           -7.5025    -3.2281     3.2105 H       
  32 F32            5.4848     3.5768    -1.7797 F       
  33 C33           -1.2349     3.6622     0.0714 C.ar    
  34 C34           -1.7118     4.3868     1.1495 C.ar    
  35 C35           -1.6900     5.7771     1.1354 C.ar    
  36 C36           -1.2013     6.4632     0.0652 C.ar    
  37 C37           -0.7066     5.7672    -1.0515 C.ar    
  38 C38           -0.7157     4.3512    -1.0512 C.ar    
  39 C39           -0.1964     6.4517    -2.1683 C.ar    
  40 C40            0.2751     5.7466    -3.2329 C.ar    
  41 C41            0.2601     4.3535    -3.2332 C.ar    
  42 C42           -0.2216     3.6581    -2.1656 C.ar    
  43 C43            5.9725    -1.9771    -1.0133 C.3     
  44 F44            5.4675    -2.6463    -2.1333 F       
  45 F45            7.3216    -2.3061    -0.8426 F       
  46 F46            5.2518    -2.3600     0.1230 F       
  47 H47            0.8267    -0.4902     0.1011 H       
  48 H48           -1.3272    -1.6734     0.1602 H       
  49 H49           -3.4064     2.0583     0.1260 H       
  50 H50            3.8947    -0.3926    -0.3334 H       
  51 H51           -2.2749    -0.6109     2.4205 H       
  52 H52            7.5456     2.1354    -2.4755 H       
  53 H53           -3.0484    -1.6214     4.5215 H       
  54 H54            7.7583    -0.2932    -2.1352 H       
  55 H55           -2.1054     3.8672     2.0106 H       
  56 H56           -2.0674     6.3224     1.9878 H       
  57 H57           -1.1941     7.5431     0.0743 H       
  58 H58           -0.1790     7.5315    -2.1817 H       
  59 H59            0.6663     6.2748    -4.0899 H       
  60 H60            0.6400     3.8173    -4.0902 H       
  61 H61           -0.2270     2.5782    -2.1791 H       
@<TRIPOS>BOND
   1    1    2 ar
   2    1    3 1
   3    1    4 ar
   4    2    5 ar
   5    2   47 1
   6    3   28 1
   7    3    6 am
   8    4   33 1
   9    4    7 ar
  10    5    8 ar
  11    5   48 1
  12    6    9 2
  13    6   10 am
  14    7    8 ar
  15    7   49 1
  16    8   11 1
  17   10   12 1
  18   10   29 1
  19   11   13 1
  20   12   14 ar
  21   12   15 ar
  22   13   16 ar
  23   13   17 ar
  24   14   18 ar
  25   14   50 1
  26   15   19 ar
  27   15   32 1
  28   16   20 1
  29   16   21 ar
  30   17   22 ar
  31   17   51 1
  32   18   23 ar
  33   18   43 1
  34   19   23 ar
  35   19   52 1
  36   20   30 1
  37   20   24 am
  38   21   26 ar
  39   21   25 1
  40   22   26 ar
  41   22   53 1
  42   23   54 1
  43   24   25 am
  44   24   27 2
  45   25   31 1
  46   33   34 ar
  47   33   38 ar
  48   34   35 ar
  49   34   55 1
  50   35   36 ar
  51   35   56 1
  52   36   37 ar
  53   36   57 1
  54   37   38 ar
  55   37   39 ar
  56   38   42 ar
  57   39   40 ar
  58   39   58 1
  59   40   41 ar
  60   40   59 1
  61   41   42 ar
  62   41   60 1
  63   42   61 1
  64   43   44 1
  65   43   45 1
  66   43   46 1

#	End of record

