#	Name: ASD05130065
#	Creating user name:	WinNT
#	Creation time:	15. 06. 2019 20:56

#	Modifying user name:	WinNT
#	Modification time:	15. 06. 2019 20:56

#	Program:	/corina/corina34_cracker 3.40 0067  02.08.2006

@<TRIPOS>MOLECULE
ASD05130065
  60   63    0    0    0
SMALL
NO_CHARGES


@<TRIPOS>ATOM
   1 N1             0.7246     1.0990    -0.0617 N.am    
   2 C2             1.1285     0.0802     0.7228 C.2     
   3 O3             2.2210     0.1189     1.2552 O.2     
   4 N4             0.3213    -0.9816     0.9172 N.am    
   5 C5             0.7806    -2.0858     1.6437 C.ar    
   6 C6            -0.1009    -2.8175     2.4283 C.ar    
   7 C7             0.3564    -3.9083     3.1452 C.ar    
   8 C8             1.6922    -4.2696     3.0804 C.ar    
   9 C9             2.5704    -3.5418     2.2997 C.ar    
  10 C10            2.1175    -2.4552     1.5768 C.ar    
  11 F11           -0.4998    -4.6214     3.9091 F       
  12 C12            1.5241     2.2417    -0.1925 C.ar    
  13 C13            0.9370     3.4757    -0.4561 C.ar    
  14 C14            1.7239     4.6064    -0.5859 C.ar    
  15 C15            3.0953     4.5164    -0.4542 C.ar    
  16 C16            3.6914     3.2838    -0.1901 C.ar    
  17 C17            2.8990     2.1449    -0.0539 C.ar    
  18 C18            3.9482     5.7506    -0.5964 C.3     
  19 N19            7.1057     2.9325     1.4044 N.am    
  20 C20            5.7675     3.0231     1.2752 C.2     
  21 C21            5.1632     3.1857    -0.0490 C.2     
  22 C22            5.9665     3.2460    -1.1549 C.2     
  23 C23            7.3690     3.1495    -0.9933 C.ar    
  24 C24            8.2287     3.2068    -2.0972 C.ar    
  25 N25            9.5299     3.1160    -1.9295 N.ar    
  26 C26           10.0805     2.9684    -0.7292 C.ar    
  27 C27            9.3020     2.9018     0.4176 C.ar    
  28 C28            7.9204     2.9932     0.2973 C.ar    
  29 O29            5.0574     2.9676     2.2635 O.2     
  30 N30           11.4606     2.8787    -0.6204 N.pl3   
  31 C31           12.0826     2.7159     0.6960 C.3     
  32 C32            7.6983     2.7761     2.7350 C.3     
  33 C33            7.3199     3.9757     3.6060 C.3     
  34 C34            7.1729     1.4919     3.3795 C.3     
  35 F35           -0.4045     3.5697    -0.5860 F       
  36 H36           -0.1178     1.0393    -0.5388 H       
  37 H37           -0.5779    -0.9802     0.5534 H       
  38 H38           -1.1421    -2.5350     2.4790 H       
  39 H39            2.0481    -5.1212     3.6413 H       
  40 H40            3.6113    -3.8258     2.2511 H       
  41 H41            2.8040    -1.8902     0.9637 H       
  42 H42            1.2641     5.5618    -0.7911 H       
  43 H43            3.3562     1.1890     0.1550 H       
  44 H44            4.0685     6.2235     0.3783 H       
  45 H45            4.9266     5.4730    -0.9887 H       
  46 H46            3.4666     6.4482    -1.2816 H       
  47 H47            5.5359     3.3654    -2.1382 H       
  48 H48            7.8214     3.3258    -3.0904 H       
  49 H49            9.7620     2.7811     1.3873 H       
  50 H50           12.0137     2.9238    -1.4160 H       
  51 H51           11.8233     3.5653     1.3279 H       
  52 H52           11.7218     1.7964     1.1570 H       
  53 H53           13.1654     2.6647     0.5823 H       
  54 H54            8.7832     2.7201     2.6452 H       
  55 H55            6.2350     4.0317     3.6958 H       
  56 H56            7.7608     3.8593     4.5960 H       
  57 H57            7.6942     4.8907     3.1468 H       
  58 H58            7.4425     0.6373     2.7590 H       
  59 H59            7.6139     1.3755     4.3696 H       
  60 H60            6.0881     1.5479     3.4693 H       
@<TRIPOS>BOND
   1    1    2 am
   2    1   12 1
   3    1   36 1
   4    2    3 2
   5    2    4 am
   6    4    5 1
   7    4   37 1
   8    5    6 ar
   9    5   10 ar
  10    6    7 ar
  11    6   38 1
  12    7    8 ar
  13    7   11 1
  14    8    9 ar
  15    8   39 1
  16    9   10 ar
  17    9   40 1
  18   10   41 1
  19   12   13 ar
  20   12   17 ar
  21   13   14 ar
  22   13   35 1
  23   14   15 ar
  24   14   42 1
  25   15   16 ar
  26   15   18 1
  27   16   17 ar
  28   16   21 1
  29   17   43 1
  30   18   44 1
  31   18   45 1
  32   18   46 1
  33   19   20 am
  34   19   28 1
  35   19   32 1
  36   20   21 1
  37   20   29 2
  38   21   22 2
  39   22   23 1
  40   22   47 1
  41   23   24 ar
  42   23   28 ar
  43   24   25 ar
  44   24   48 1
  45   25   26 ar
  46   26   27 ar
  47   26   30 1
  48   27   28 ar
  49   27   49 1
  50   30   31 1
  51   30   50 1
  52   31   51 1
  53   31   52 1
  54   31   53 1
  55   32   33 1
  56   32   34 1
  57   32   54 1
  58   33   55 1
  59   33   56 1
  60   33   57 1
  61   34   58 1
  62   34   59 1
  63   34   60 1

#	End of record

