#	Name: ASD03092133
#	Creating user name:	WinNT
#	Creation time:	15. 06. 2019 20:32

#	Modifying user name:	WinNT
#	Modification time:	15. 06. 2019 20:32

#	Program:	/corina/corina34_cracker 3.40 0067  02.08.2006

@<TRIPOS>MOLECULE
ASD03092133
  52   54    0    0    0
SMALL
NO_CHARGES


@<TRIPOS>ATOM
   1 N1             0.2833     0.9000    -0.3945 N.pl3   
   2 C2             0.0823    -0.3563     0.0956 C.2     
   3 C3            -1.2588    -0.5023     0.3096 C.2     
   4 C4            -1.8841     0.6951    -0.0600 C.2     
   5 N5            -0.9630     1.5339    -0.4750 N.2     
   6 N6            -3.2582     0.9557     0.0071 N.pl3   
   7 C7            -3.7420     2.2356    -0.2815 C.ar    
   8 C8            -5.0230     2.3958    -0.7933 C.ar    
   9 C9            -5.4990     3.6611    -1.0772 C.ar    
  10 C10           -4.6998     4.7691    -0.8522 C.ar    
  11 C11           -2.9440     3.3492    -0.0512 C.ar    
  12 C12            1.1251    -1.3744     0.3490 C.ar    
  13 C13            1.5743     1.4850    -0.7650 C.3     
  14 C14            2.3609    -1.3163    -0.3053 C.ar    
  15 C15            3.3046    -2.2863    -0.0392 C.ar    
  16 N16            3.0545    -3.2580     0.8177 N.ar    
  17 C17            1.9031    -3.3499     1.4556 C.ar    
  18 C18            0.9054    -2.4192     1.2538 C.ar    
  19 C19            1.6775    -4.4835     2.4226 C.3     
  20 C20           -3.4220     4.6118    -0.3418 C.ar    
  21 C21            4.6393    -2.2360    -0.7371 C.3     
  22 C22            1.8128     1.2830    -2.2392 C.2     
  23 N23            2.9451     1.7423    -2.8079 N.am    
  24 O24            0.9859     0.7070    -2.9140 O.2     
  25 C25            3.1770     1.5459    -4.2410 C.3     
  26 C26            3.9440     2.4381    -1.9928 C.3     
  27 F27           -5.1671     6.0055    -1.1314 F       
  28 C28           -6.8890     3.8356    -1.6326 C.3     
  29 F29           -7.4961     2.5829    -1.7720 F       
  30 F30           -7.6444     4.6253    -0.7593 F       
  31 F31           -6.8168     4.4604    -2.8822 F       
  32 H32           -1.7494    -1.3838     0.6952 H       
  33 H33           -3.8745     0.2485     0.2538 H       
  34 H34           -5.6465     1.5317    -0.9696 H       
  35 H35           -1.9490     3.2273     0.3506 H       
  36 H36            1.5675     2.5517    -0.5409 H       
  37 H37            2.3691     0.9998    -0.1985 H       
  38 H38            2.5724    -0.5240    -1.0081 H       
  39 H39           -0.0346    -2.5005     1.7794 H       
  40 H40            2.0000    -4.1809     3.4188 H       
  41 H41            0.6175    -4.7364     2.4450 H       
  42 H42            2.2518    -5.3531     2.1033 H       
  43 H43           -2.8004     5.4775    -0.1672 H       
  44 H44            5.3383    -1.6478    -0.1425 H       
  45 H45            5.0256    -3.2483    -0.8558 H       
  46 H46            4.5195    -1.7755    -1.7177 H       
  47 H47            2.7717     2.3932    -4.7941 H       
  48 H48            4.2479     1.4684    -4.4285 H       
  49 H49            2.6838     0.6300    -4.5667 H       
  50 H50            4.2964     1.7734    -1.2041 H       
  51 H51            4.7841     2.7334    -2.6214 H       
  52 H52            3.4948     3.3253    -1.5465 H       
@<TRIPOS>BOND
   1    1    2 1
   2    1   13 1
   3    1    5 1
   4    2    3 2
   5    2   12 1
   6    3    4 1
   7    3   32 1
   8    4    5 2
   9    4    6 1
  10    6    7 1
  11    6   33 1
  12    7    8 ar
  13    7   11 ar
  14    8    9 ar
  15    8   34 1
  16    9   10 ar
  17    9   28 1
  18   10   20 ar
  19   10   27 1
  20   11   20 ar
  21   11   35 1
  22   12   14 ar
  23   12   18 ar
  24   13   22 1
  25   13   36 1
  26   13   37 1
  27   14   15 ar
  28   14   38 1
  29   15   16 ar
  30   15   21 1
  31   16   17 ar
  32   17   18 ar
  33   17   19 1
  34   18   39 1
  35   19   40 1
  36   19   41 1
  37   19   42 1
  38   20   43 1
  39   21   44 1
  40   21   45 1
  41   21   46 1
  42   22   23 am
  43   22   24 2
  44   23   25 1
  45   23   26 1
  46   25   47 1
  47   25   48 1
  48   25   49 1
  49   26   50 1
  50   26   51 1
  51   26   52 1
  52   28   29 1
  53   28   30 1
  54   28   31 1

#	End of record

