#	Name: ASD06020016
#	Creating user name:	WinNT
#	Creation time:	15. 06. 2019 21:04

#	Modifying user name:	WinNT
#	Modification time:	15. 06. 2019 21:04

#	Program:	/corina/corina34_cracker 3.40 0067  02.08.2006

@<TRIPOS>MOLECULE
ASD06020016
  37   40    0    0    0
SMALL
NO_CHARGES


@<TRIPOS>ATOM
   1 C1            -0.0166     1.3952     0.0022 C.ar    
   2 C2             0.0031    -0.0035     0.0022 C.ar    
   3 C3             1.2300    -0.6764    -0.0207 C.ar    
   4 C4             2.4026     0.1210    -0.0436 C.ar    
   5 C5             2.2924     1.4756    -0.0426 C.ar    
   6 N6             1.1144     2.0791    -0.0192 N.ar    
   7 S7            -1.2858    -1.2018     0.0267 S.3     
   8 C8            -0.0955    -2.4966     0.0047 C.2     
   9 N9             1.1002    -2.0038    -0.0179 N.2     
  10 N10           -1.2335     2.0703     0.0191 N.pl3   
  11 C11           -1.2584     3.4567     0.1318 C.ar    
  12 C12           -2.4695     4.1346     0.0358 C.ar    
  13 C13           -2.4797     5.5130     0.1497 C.ar    
  14 C14           -1.2736     6.1698     0.3565 C.ar    
  15 C15           -0.1089     5.4339     0.4417 C.ar    
  16 N16           -0.1299     4.1188     0.3348 N.ar    
  17 C17           -3.7703     6.2848     0.0511 C.3     
  18 C18           -0.4153    -3.9394     0.0106 C.ar    
  19 C19            0.6116    -4.8861    -0.0085 C.ar    
  20 C20            0.3054    -6.2324    -0.0029 C.ar    
  21 C21           -1.0150    -6.6455     0.0215 C.ar    
  22 C22           -2.0376    -5.7151     0.0405 C.ar    
  23 C23           -1.7466    -4.3634     0.0410 C.ar    
  24 F24           -2.7465    -3.4552     0.0656 F       
  25 Cl25           2.2692    -4.3711    -0.0397 Cl      
  26 H26            3.3767    -0.3452    -0.0615 H       
  27 H27            3.1901     2.0759    -0.0598 H       
  28 H28           -2.0644     1.5741    -0.0477 H       
  29 H29           -3.3892     3.5920    -0.1257 H       
  30 H30           -1.2472     7.2455     0.4493 H       
  31 H31            0.8312     5.9406     0.6025 H       
  32 H32           -4.2098     6.3860     1.0433 H       
  33 H33           -3.5714     7.2741    -0.3609 H       
  34 H34           -4.4631     5.7524    -0.6006 H       
  35 H35            1.0986    -6.9651    -0.0179 H       
  36 H36           -1.2480    -7.7001     0.0254 H       
  37 H37           -3.0659    -6.0449     0.0595 H       
@<TRIPOS>BOND
   1    1    2 ar
   2    1    6 ar
   3    1   10 1
   4    2    3 ar
   5    2    7 1
   6    3    4 ar
   7    3    9 1
   8    4    5 ar
   9    4   26 1
  10    5    6 ar
  11    5   27 1
  12    7    8 1
  13    8    9 2
  14    8   18 1
  15   10   11 1
  16   10   28 1
  17   11   12 ar
  18   11   16 ar
  19   12   13 ar
  20   12   29 1
  21   13   14 ar
  22   13   17 1
  23   14   15 ar
  24   14   30 1
  25   15   16 ar
  26   15   31 1
  27   17   32 1
  28   17   33 1
  29   17   34 1
  30   18   19 ar
  31   18   23 ar
  32   19   20 ar
  33   19   25 1
  34   20   21 ar
  35   20   35 1
  36   21   22 ar
  37   21   36 1
  38   22   23 ar
  39   22   37 1
  40   23   24 1

#	End of record

