#	Name: ASD01884952
#	Creating user name:	WinNT
#	Creation time:	15. 06. 2019 19:49

#	Modifying user name:	WinNT
#	Modification time:	15. 06. 2019 19:49

#	Program:	/corina/corina34_cracker 3.40 0067  02.08.2006

@<TRIPOS>MOLECULE
ASD01884952
  50   53    0    0    0
SMALL
NO_CHARGES


@<TRIPOS>ATOM
   1 C1             0.0401     1.4371    -0.2844 C.ar    
   2 C2             0.1469     0.1526    -0.7775 C.ar    
   3 C3            -0.9319    -0.4279    -1.4458 C.ar    
   4 C4            -2.1143     0.2925    -1.6130 C.ar    
   5 C5            -2.2150     1.5759    -1.1178 C.ar    
   6 C6            -1.1432     2.1497    -0.4484 C.ar    
   7 C7            -0.8211    -1.8062    -1.9771 C.2     
   8 C8            -1.6116    -2.8161    -1.4638 C.2     
   9 C9             0.0928    -2.0988    -3.0207 C.2     
  10 C10            0.1932    -3.3500    -3.5034 C.2     
  11 N11           -0.5807    -4.3591    -2.9993 N.pl3   
  12 C12           -1.4846    -4.1148    -1.9877 C.2     
  13 C13           -0.6925    -5.6873    -3.2833 C.2     
  14 N14           -1.6033    -6.1852    -2.4810 N.2     
  15 N15           -2.0754    -5.2655    -1.7151 N.2     
  16 O16            0.0091    -6.3695    -4.2237 O.3     
  17 O17           -1.2461     3.4145     0.0380 O.3     
  18 C18           -2.4478     4.0381    -0.0574 C.ar    
  19 F19            1.0834     2.0007     0.3629 F       
  20 C20           -0.2685    -7.7651    -4.3546 C.3     
  21 C21           -3.4008     3.9104     0.9505 C.ar    
  22 C22           -4.6102     4.5606     0.8162 C.ar    
  23 N23           -4.8687     5.2948    -0.2494 N.ar    
  24 C24           -3.9918     5.4399    -1.2249 C.ar    
  25 C25           -2.7574     4.8268    -1.1630 C.ar    
  26 C26            0.6121    -8.3592    -5.4557 C.3     
  27 C27           -4.3410     6.2907    -2.4188 C.3     
  28 C28           -5.6494     4.4303     1.8999 C.3     
  29 C29           -2.5950    -2.5304    -0.3582 C.3     
  30 F30           -3.8568    -2.2821    -0.9092 F       
  31 F31           -2.6689    -3.6349     0.4972 F       
  32 F32           -2.1724    -1.4090     0.3636 F       
  33 H33            1.0641    -0.4025    -0.6467 H       
  34 H34           -2.9506    -0.1542    -2.1301 H       
  35 H35           -3.1306     2.1337    -1.2477 H       
  36 H36            0.7109    -1.3134    -3.4300 H       
  37 H37            0.8929    -3.5606    -4.2988 H       
  38 H38           -0.0581    -8.2676    -3.4104 H       
  39 H39           -1.3180    -7.9041    -4.6141 H       
  40 H40           -3.1959     3.3105     1.8248 H       
  41 H41           -2.0444     4.9496    -1.9648 H       
  42 H42            0.4017    -7.8568    -6.3999 H       
  43 H43            1.6616    -8.2203    -5.1962 H       
  44 H44            0.4004    -9.4238    -5.5556 H       
  45 H45           -4.0349     7.3202    -2.2332 H       
  46 H46           -3.8232     5.9108    -3.2995 H       
  47 H47           -5.4174     6.2563    -2.5871 H       
  48 H48           -5.5094     5.2230     2.6347 H       
  49 H49           -6.6439     4.5127     1.4614 H       
  50 H50           -5.5464     3.4608     2.3873 H       
@<TRIPOS>BOND
   1    1    2 ar
   2    1   19 1
   3    1    6 ar
   4    2    3 ar
   5    2   33 1
   6    3    4 ar
   7    3    7 1
   8    4    5 ar
   9    4   34 1
  10    5    6 ar
  11    5   35 1
  12    6   17 1
  13    7    8 2
  14    7    9 1
  15    8   29 1
  16    8   12 1
  17    9   10 2
  18    9   36 1
  19   10   11 1
  20   10   37 1
  21   11   12 1
  22   11   13 1
  23   12   15 2
  24   13   14 2
  25   13   16 1
  26   14   15 1
  27   16   20 1
  28   17   18 1
  29   18   21 ar
  30   18   25 ar
  31   20   26 1
  32   20   38 1
  33   20   39 1
  34   21   22 ar
  35   21   40 1
  36   22   23 ar
  37   22   28 1
  38   23   24 ar
  39   24   25 ar
  40   24   27 1
  41   25   41 1
  42   26   42 1
  43   26   43 1
  44   26   44 1
  45   27   45 1
  46   27   46 1
  47   27   47 1
  48   28   48 1
  49   28   49 1
  50   28   50 1
  51   29   30 1
  52   29   31 1
  53   29   32 1

#	End of record

