#	Name: ASD02198395
#	Creating user name:	WinNT
#	Creation time:	15. 06. 2019 20:19

#	Modifying user name:	WinNT
#	Modification time:	15. 06. 2019 20:19

#	Program:	/corina/corina34_cracker 3.40 0067  02.08.2006

@<TRIPOS>MOLECULE
ASD02198395
  46   49    0    0    0
SMALL
NO_CHARGES


@<TRIPOS>ATOM
   1 C1            -0.2106     1.0806    -0.3402 C.2     
   2 C2            -0.1183    -0.2635    -0.3572 C.2     
   3 S3             1.3997     1.7772    -0.2154 S.3     
   4 C4             2.1248     0.1752    -0.1927 C.2     
   5 C5             1.1692    -0.7543    -0.2757 C.2     
   6 S6             3.8520    -0.1541    -0.0786 S.o2    
   7 N7             4.4420    -0.2179    -1.6246 N.am    
   8 C8             4.3247     0.8906    -2.4617 C.ar    
   9 C9             4.0846     0.7144    -3.8428 C.ar    
  10 C10            3.9681     1.8543    -4.6754 C.ar    
  11 C11            4.0924     3.1381    -4.1221 C.ar    
  12 C12            4.3268     3.2812    -2.7729 C.ar    
  13 C13            4.4365     2.1617    -1.9455 C.ar    
  14 N14            3.9674    -0.5079    -4.3686 N.ar    
  15 C15            3.7451    -0.6817    -5.6486 C.ar    
  16 C16            3.6200     0.3956    -6.5234 C.ar    
  17 C17            3.7288     1.6724    -6.0514 C.ar    
  18 O18            4.4391     0.9889     0.5282 O.2     
  19 O19            3.9761    -1.4662     0.4528 O.2     
  20 C20           -1.4706     1.8512    -0.4204 C.2     
  21 N21           -2.6838     1.3463    -0.5194 N.2     
  22 C22           -1.5872     3.2564    -0.3985 C.2     
  23 C23           -2.8986     3.5643    -0.4929 C.2     
  24 N24           -3.5946     2.4093    -0.5686 N.pl3   
  25 C25           -5.0502     2.2891    -0.6820 C.3     
  26 C26           -3.4834     4.9531    -0.5075 C.3     
  27 F27           -2.4487     5.8946    -0.5229 F       
  28 F28           -4.2765     5.1132    -1.6488 F       
  29 F29           -4.2678     5.1409     0.6356 F       
  30 O30            4.4467     4.5254    -2.2398 O.3     
  31 C31            4.3185     5.6306    -3.1366 C.3     
  32 H32           -0.9834    -0.9061    -0.4285 H       
  33 H33            1.3878    -1.8120    -0.2785 H       
  34 H34            4.8693    -1.0266    -1.9476 H       
  35 H35            4.0049     4.0107    -4.7524 H       
  36 H36            4.6200     2.2945    -0.8896 H       
  37 H37            3.6569    -1.6861    -6.0354 H       
  38 H38            3.4368     0.2210    -7.5734 H       
  39 H39            3.6346     2.5192    -6.7150 H       
  40 H40           -0.7725     3.9610    -0.3196 H       
  41 H41           -5.3331     2.2793    -1.7346 H       
  42 H42           -5.3762     1.3624    -0.2096 H       
  43 H43           -5.5245     3.1360    -0.1862 H       
  44 H44            5.0885     5.5659    -3.9053 H       
  45 H45            3.3345     5.6062    -3.6049 H       
  46 H46            4.4346     6.5626    -2.5835 H       
@<TRIPOS>BOND
   1    1    2 2
   2    1    3 1
   3    1   20 1
   4    2    5 1
   5    2   32 1
   6    3    4 1
   7    4    5 2
   8    4    6 1
   9    5   33 1
  10    6    7 am
  11    6   18 2
  12    6   19 2
  13    7    8 1
  14    7   34 1
  15    8    9 ar
  16    8   13 ar
  17    9   10 ar
  18    9   14 ar
  19   10   11 ar
  20   10   17 ar
  21   11   12 ar
  22   11   35 1
  23   12   13 ar
  24   12   30 1
  25   13   36 1
  26   14   15 ar
  27   15   16 ar
  28   15   37 1
  29   16   17 ar
  30   16   38 1
  31   17   39 1
  32   20   21 2
  33   20   22 1
  34   21   24 1
  35   22   23 2
  36   22   40 1
  37   23   24 1
  38   23   26 1
  39   24   25 1
  40   25   41 1
  41   25   42 1
  42   25   43 1
  43   26   27 1
  44   26   28 1
  45   26   29 1
  46   30   31 1
  47   31   44 1
  48   31   45 1
  49   31   46 1

#	End of record

