#	Name: ASD01814166
#	Creating user name:	WinNT
#	Creation time:	15. 06. 2019 19:31

#	Modifying user name:	WinNT
#	Modification time:	15. 06. 2019 19:31

#	Program:	/corina/corina34_cracker 3.40 0067  02.08.2006

@<TRIPOS>MOLECULE
ASD01814166
  42   45    0    0    0
SMALL
NO_CHARGES


@<TRIPOS>ATOM
   1 C1            -0.0169     1.3972     0.0097 C.2     
   2 C2             0.0021    -0.0041     0.0020 C.2     
   3 C3             1.1986    -0.6593    -0.0129 C.2     
   4 C4             2.3918     0.0821    -0.0204 C.2     
   5 N5             2.3437     1.4497    -0.0122 N.am    
   6 C6             1.1421     2.0937     0.0024 C.2     
   7 C7             3.6227    -0.5889    -0.0356 C.2     
   8 C8             4.7877     0.1218    -0.0425 C.2     
   9 C9             4.7345     1.5280    -0.0346 C.2     
  10 C10            3.4812     2.1736    -0.0189 C.2     
  11 O11            3.4258     3.3917    -0.0123 O.2     
  12 C12            5.9703     2.3140    -0.0413 C.2     
  13 O13            5.9124     3.6618    -0.0337 O.3     
  14 O14            7.0487     1.7516    -0.0537 O.2     
  15 C15            3.6593    -2.0954    -0.0439 C.3     
  16 C16            3.7818    -2.5871    -1.4632 C.ar    
  17 N17            2.8992    -2.1990    -2.3631 N.ar    
  18 C18            2.9621    -2.5997    -3.6166 C.ar    
  19 C19            3.9762    -3.4573    -4.0368 C.ar    
  20 C20            4.9272    -3.8867    -3.1066 C.ar    
  21 C21            4.8214    -3.4338    -1.8030 C.ar    
  22 C22            4.0456    -3.9082    -5.4486 C.ar    
  23 C23            3.0985    -3.4840    -6.3849 C.ar    
  24 C24            3.2000    -3.9274    -7.6876 C.ar    
  25 N25            4.1731    -4.7400    -8.0524 N.ar    
  26 C26            5.0867    -5.1637    -7.2002 C.ar    
  27 C27            5.0630    -4.7639    -5.8798 C.ar    
  28 H28           -0.9605     1.9226     0.0170 H       
  29 H29           -0.9233    -0.5609     0.0082 H       
  30 H30            1.2282    -1.7389    -0.0187 H       
  31 H31            1.1156     3.1733     0.0087 H       
  32 H32            5.7393    -0.3889    -0.0536 H       
  33 H33            6.7544     4.1373    -0.0385 H       
  34 H34            4.5153    -2.4412     0.5356 H       
  35 H35            2.7412    -2.4836     0.3971 H       
  36 H36            2.2205    -2.2604    -4.3246 H       
  37 H37            5.7263    -4.5519    -3.3986 H       
  38 H38            5.5382    -3.7446    -1.0573 H       
  39 H39            2.2989    -2.8194    -6.0930 H       
  40 H40            2.4729    -3.6051    -8.4182 H       
  41 H41            5.8662    -5.8287    -7.5417 H       
  42 H42            5.8141    -5.1147    -5.1875 H       
@<TRIPOS>BOND
   1    1    2 1
   2    1    6 2
   3    1   28 1
   4    2    3 2
   5    2   29 1
   6    3    4 1
   7    3   30 1
   8    4    5 1
   9    4    7 2
  10    5    6 1
  11    5   10 am
  12    6   31 1
  13    7    8 1
  14    7   15 1
  15    8    9 2
  16    8   32 1
  17    9   10 1
  18    9   12 1
  19   10   11 2
  20   12   13 1
  21   12   14 2
  22   13   33 1
  23   15   16 1
  24   15   34 1
  25   15   35 1
  26   16   17 ar
  27   16   21 ar
  28   17   18 ar
  29   18   19 ar
  30   18   36 1
  31   19   20 ar
  32   19   22 1
  33   20   21 ar
  34   20   37 1
  35   21   38 1
  36   22   23 ar
  37   22   27 ar
  38   23   24 ar
  39   23   39 1
  40   24   25 ar
  41   24   40 1
  42   25   26 ar
  43   26   27 ar
  44   26   41 1
  45   27   42 1

#	End of record

