#	Name: ASD03331396
#	Creating user name:	WinNT
#	Creation time:	15. 06. 2019 20:39

#	Modifying user name:	WinNT
#	Modification time:	15. 06. 2019 20:39

#	Program:	/corina/corina34_cracker 3.40 0067  02.08.2006

@<TRIPOS>MOLECULE
ASD03331396
  57   59    0    0    0
SMALL
NO_CHARGES


@<TRIPOS>ATOM
   1 O1            -0.5972     0.8855     0.4209 O.3     
   2 C2            -0.6887    -0.5295     0.2356 C.3     
   3 C3            -0.0616    -0.9162    -1.1132 C.3     
   4 C4             1.2675    -0.2187    -1.2139 C.2     
   5 C5             1.6305     0.8154    -0.4102 C.2     
   6 C6             0.7311     1.3702     0.6639 C.3     
   7 C7             2.3515    -0.4396    -2.0744 C.2     
   8 N8             3.2818     0.4452    -1.7511 N.2     
   9 N9             2.8734     1.1859    -0.7775 N.pl3   
  10 C10            2.4393    -1.4621    -3.1359 C.2     
  11 O11            1.5073    -2.2183    -3.3301 O.2     
  12 N12            3.5526    -1.5572    -3.8895 N.am    
  13 C13            3.6397    -2.5718    -4.9428 C.3     
  14 C14            2.9961    -2.0348    -6.2227 C.3     
  15 C15            5.0870    -2.8984    -5.2071 C.2     
  16 C16            3.6118     2.2220    -0.1891 C.ar    
  17 C17            4.2474     3.1656    -0.9886 C.ar    
  18 C18            4.9752     4.1865    -0.4044 C.ar    
  19 C19            5.0704     4.2683     0.9735 C.ar    
  20 C20            4.4382     3.3297     1.7705 C.ar    
  21 C21            3.7054     2.3114     1.1931 C.ar    
  22 Cl22           5.9849     5.5502     1.7041 Cl      
  23 C23            3.6802    -0.7276    -6.6280 C.3     
  24 C24            3.1560    -3.0631    -7.3442 C.3     
  25 C25            1.5084    -1.7765    -5.9758 C.3     
  26 N26            5.4151    -4.0434    -5.8378 N.am    
  27 O27            5.9564    -2.1309    -4.8524 O.2     
  28 C28            6.8236    -4.4098    -6.0052 C.3     
  29 C29            6.9187    -5.7442    -6.7477 C.3     
  30 O30            6.4082    -5.5891    -8.0734 O.3     
  31 F31            4.1546     3.0852    -2.3341 F       
  32 H32           -0.1571    -1.0359     1.0413 H       
  33 H33           -1.7363    -0.8300     0.2480 H       
  34 H34            0.0830    -1.9956    -1.1579 H       
  35 H35           -0.7103    -0.5951    -1.9282 H       
  36 H36            0.7389     2.4595     0.6252 H       
  37 H37            1.0735     1.0329     1.6422 H       
  38 H38            4.2962    -0.9539    -3.7346 H       
  39 H39            3.1164    -3.4729    -4.6233 H       
  40 H40            5.4697     4.9200    -1.0240 H       
  41 H41            4.5147     3.3961     2.8457 H       
  42 H42            3.2127     1.5798     1.8163 H       
  43 H43            4.7401    -0.9116    -6.8038 H       
  44 H44            3.2217    -0.3451    -7.5398 H       
  45 H45            3.5663     0.0050    -5.8290 H       
  46 H46            2.6662    -3.9935    -7.0566 H       
  47 H47            2.6998    -2.6794    -8.2568 H       
  48 H48            4.2158    -3.2491    -7.5182 H       
  49 H49            1.3945    -1.0439    -5.1768 H       
  50 H50            1.0498    -1.3939    -6.8877 H       
  51 H51            1.0210    -2.7077    -5.6871 H       
  52 H52            4.7186    -4.6249    -6.1808 H       
  53 H53            7.3342    -3.6371    -6.5799 H       
  54 H54            7.2932    -4.5045    -5.0261 H       
  55 H55            7.9607    -6.0606    -6.7943 H       
  56 H56            6.3338    -6.4967    -6.2189 H       
  57 H57            6.4376    -6.3975    -8.6032 H       
@<TRIPOS>BOND
   1    1    2 1
   2    1    6 1
   3    2    3 1
   4    2   32 1
   5    2   33 1
   6    3    4 1
   7    3   34 1
   8    3   35 1
   9    4    5 2
  10    4    7 1
  11    5    6 1
  12    5    9 1
  13    6   36 1
  14    6   37 1
  15    7    8 2
  16    7   10 1
  17    8    9 1
  18    9   16 1
  19   10   11 2
  20   10   12 am
  21   12   13 1
  22   12   38 1
  23   13   14 1
  24   13   15 1
  25   13   39 1
  26   14   23 1
  27   14   24 1
  28   14   25 1
  29   15   26 am
  30   15   27 2
  31   16   17 ar
  32   16   21 ar
  33   17   18 ar
  34   17   31 1
  35   18   19 ar
  36   18   40 1
  37   19   20 ar
  38   19   22 1
  39   20   21 ar
  40   20   41 1
  41   21   42 1
  42   23   43 1
  43   23   44 1
  44   23   45 1
  45   24   46 1
  46   24   47 1
  47   24   48 1
  48   25   49 1
  49   25   50 1
  50   25   51 1
  51   26   28 1
  52   26   52 1
  53   28   29 1
  54   28   53 1
  55   28   54 1
  56   29   30 1
  57   29   55 1
  58   29   56 1
  59   30   57 1

#	End of record

