#	Name: ASD01915451
#	Creating user name:	WinNT
#	Creation time:	15. 06. 2019 20:05

#	Modifying user name:	WinNT
#	Modification time:	15. 06. 2019 20:05

#	Program:	/corina/corina34_cracker 3.40 0067  02.08.2006

@<TRIPOS>MOLECULE
ASD01915451
  40   42    0    0    0
SMALL
NO_CHARGES


@<TRIPOS>ATOM
   1 C1            -0.4109     1.7407     0.1046 C.ar    
   2 C2            -0.5436     0.3904     0.3733 C.ar    
   3 N3             0.4995    -0.3396     0.7070 N.ar    
   4 C4             1.7174     0.1819     0.8000 C.ar    
   5 C5             1.9308     1.5328     0.5449 C.ar    
   6 C6             0.8471     2.3316     0.1894 C.ar    
   7 C7            -1.9027    -0.2543     0.2831 C.3     
   8 O8             1.0129     3.6540    -0.0681 O.3     
   9 C9             2.2645     4.1726     0.0378 C.ar    
  10 C10            3.1950     3.9764    -0.9725 C.ar    
  11 N11            4.4108     4.4766    -0.8751 N.ar    
  12 C12            4.7918     5.1777     0.1743 C.ar    
  13 C13            3.9197     5.4167     1.2235 C.ar    
  14 C14            2.6289     4.9124     1.1582 C.ar    
  15 C15            2.8589    -0.6826     1.1794 C.2     
  16 N16            2.6590    -1.9920     1.4284 N.am    
  17 O17            3.9756    -0.2112     1.2662 O.2     
  18 C18            3.7453    -2.8266     1.6819 C.ar    
  19 C19            3.5444    -4.1950     1.8226 C.ar    
  20 C20            4.6322    -5.0127     2.0742 C.ar    
  21 C21            5.8882    -4.4309     2.1769 C.ar    
  22 C22            6.0146    -3.0638     2.0261 C.ar    
  23 N23            4.9602    -2.3100     1.7814 N.ar    
  24 F24            4.3194     6.1364     2.2947 F       
  25 C25            7.3755    -2.4260     2.1363 C.3     
  26 H26           -1.2729     2.3294    -0.1723 H       
  27 H27            2.9217     1.9555     0.6216 H       
  28 H28           -2.0632    -0.6235    -0.7299 H       
  29 H29           -1.9578    -1.0858     0.9857 H       
  30 H30           -2.6702     0.4799     0.5281 H       
  31 H31            2.9203     3.4073    -1.8482 H       
  32 H32            5.7969     5.5704     0.2167 H       
  33 H33            1.9269     5.0831     1.9610 H       
  34 H34            1.7588    -2.3533     1.4311 H       
  35 H35            2.5528    -4.6143     1.7370 H       
  36 H36            4.5067    -6.0792     2.1885 H       
  37 H37            6.7577    -5.0408     2.3730 H       
  38 H38            7.8438    -2.3966     1.1525 H       
  39 H39            7.2710    -1.4109     2.5194 H       
  40 H40            7.9960    -3.0091     2.8169 H       
@<TRIPOS>BOND
   1    1    2 ar
   2    1    6 ar
   3    1   26 1
   4    2    3 ar
   5    2    7 1
   6    3    4 ar
   7    4    5 ar
   8    4   15 1
   9    5    6 ar
  10    5   27 1
  11    6    8 1
  12    7   28 1
  13    7   29 1
  14    7   30 1
  15    8    9 1
  16    9   10 ar
  17    9   14 ar
  18   10   11 ar
  19   10   31 1
  20   11   12 ar
  21   12   13 ar
  22   12   32 1
  23   13   14 ar
  24   13   24 1
  25   14   33 1
  26   15   16 am
  27   15   17 2
  28   16   18 1
  29   16   34 1
  30   18   19 ar
  31   18   23 ar
  32   19   20 ar
  33   19   35 1
  34   20   21 ar
  35   20   36 1
  36   21   22 ar
  37   21   37 1
  38   22   23 ar
  39   22   25 1
  40   25   38 1
  41   25   39 1
  42   25   40 1

#	End of record

