#	Name: ASD08150515
#	Creating user name:	WinNT
#	Creation time:	15. 06. 2019 21:16

#	Modifying user name:	WinNT
#	Modification time:	15. 06. 2019 21:16

#	Program:	/corina/corina34_cracker 3.40 0067  02.08.2006

@<TRIPOS>MOLECULE
ASD08150515
  36   37    0    0    0
SMALL
NO_CHARGES


@<TRIPOS>ATOM
   1 C1             0.1677     1.6116     0.0290 C.2     
   2 C2            -0.1344     0.1713     0.0408 C.ar    
   3 C3             0.9023    -0.7677    -0.0854 C.ar    
   4 C4             0.6097    -2.1232    -0.0735 C.ar    
   5 C5            -0.7014    -2.5492     0.0625 C.ar    
   6 C6            -1.7342    -1.6188     0.1881 C.ar    
   7 C7            -1.4555    -0.2684     0.1835 C.ar    
   8 O8             1.3234     1.9904     0.0034 O.2     
   9 N9            -0.8362     2.5108     0.0410 N.am    
  10 O10           -3.0194    -2.0458     0.3212 O.3     
  11 C11           -4.0274    -1.0406     0.4453 C.3     
  12 O12           -0.9830    -3.8776     0.0731 O.3     
  13 C13            0.1204    -4.7758    -0.0601 C.3     
  14 C14           -0.5508     3.8764     0.1470 C.ar    
  15 C15           -1.4548     4.8164    -0.3343 C.ar    
  16 C16           -1.1697     6.1642    -0.2274 C.ar    
  17 C17            0.0136     6.5777     0.3573 C.ar    
  18 C18            0.9146     5.6449     0.8364 C.ar    
  19 C19            0.6331     4.2959     0.7383 C.ar    
  20 Cl20          -2.9396     4.2977    -1.0692 Cl      
  21 N21            2.2186    -0.3393    -0.2224 N.pl3   
  22 H22            1.4049    -2.8475    -0.1707 H       
  23 H23           -2.2561     0.4492     0.2857 H       
  24 H24           -1.7564     2.2112    -0.0239 H       
  25 H25           -3.8278    -0.4328     1.3278 H       
  26 H26           -4.0197    -0.4069    -0.4416 H       
  27 H27           -5.0037    -1.5152     0.5442 H       
  28 H28           -0.2426    -5.8033    -0.0361 H       
  29 H29            0.6266    -4.5914    -1.0076 H       
  30 H30            0.8187    -4.6179     0.7617 H       
  31 H31           -1.8712     6.8954    -0.6010 H       
  32 H32            0.2344     7.6317     0.4394 H       
  33 H33            1.8377     5.9714     1.2920 H       
  34 H34            1.3355     3.5682     1.1172 H       
  35 H35            2.4143     0.6069    -0.3079 H       
  36 H36            2.9408    -0.9868    -0.2324 H       
@<TRIPOS>BOND
   1    1    2 1
   2    1    8 2
   3    1    9 am
   4    2    3 ar
   5    2    7 ar
   6    3    4 ar
   7    3   21 1
   8    4    5 ar
   9    4   22 1
  10    5    6 ar
  11    5   12 1
  12    6    7 ar
  13    6   10 1
  14    7   23 1
  15    9   14 1
  16    9   24 1
  17   10   11 1
  18   11   25 1
  19   11   26 1
  20   11   27 1
  21   12   13 1
  22   13   28 1
  23   13   29 1
  24   13   30 1
  25   14   15 ar
  26   14   19 ar
  27   15   16 ar
  28   15   20 1
  29   16   17 ar
  30   16   31 1
  31   17   18 ar
  32   17   32 1
  33   18   19 ar
  34   18   33 1
  35   19   34 1
  36   21   35 1
  37   21   36 1

#	End of record

