#	Name: ASD01948085
#	Creating user name:	WinNT
#	Creation time:	15. 06. 2019 20:13

#	Modifying user name:	WinNT
#	Modification time:	15. 06. 2019 20:13

#	Program:	/corina/corina34_cracker 3.40 0067  02.08.2006

@<TRIPOS>MOLECULE
ASD01948085
  51   54    0    0    0
SMALL
NO_CHARGES


@<TRIPOS>ATOM
   1 C1            -1.4849     1.3336     0.6510 C.3     
   2 C2            -2.1907    -0.0128     0.4779 C.3     
   3 C3            -0.6694     0.0392     0.6324 C.3     
   4 S4            -1.3743     2.4142    -0.8019 S.o2    
   5 O5            -0.2322     2.0865    -1.5813 O.2     
   6 O6            -2.6516     2.5720    -1.4043 O.2     
   7 N7            -1.0288     3.9094    -0.1795 N.am    
   8 C8             1.3489     3.4741    -0.0837 C.2     
   9 C9             0.3020     4.3760    -0.1631 C.2     
  10 C10            0.5613     5.7523    -0.2277 C.2     
  11 C11            1.8877     6.1716    -0.2094 C.2     
  12 C12            2.9011     5.2327    -0.1291 C.2     
  13 N13            2.6430     3.8923    -0.0659 N.am    
  14 S14            1.2802     1.7079     0.0140 S.3     
  15 C15            3.6658     2.8507     0.0200 C.3     
  16 C16            3.0768     1.4440     0.0777 C.3     
  17 O17            4.0625     5.6141    -0.1138 O.2     
  18 C18            2.2190     7.6401    -0.2771 C.3     
  19 N19           -0.4758     6.6704    -0.3080 N.pl3   
  20 C20           -1.3272     6.6687    -1.4183 C.ar    
  21 C21           -2.4174     7.5318    -1.4622 C.ar    
  22 C22           -3.2560     7.5272    -2.5613 C.ar    
  23 C23           -3.0114     6.6651    -3.6157 C.ar    
  24 C24           -1.9282     5.8064    -3.5739 C.ar    
  25 C25           -1.0827     5.8098    -2.4809 C.ar    
  26 I26           -4.2853     6.6604    -5.2788 I       
  27 F27           -2.6566     8.3728    -0.4322 F       
  28 C28           -1.6456     2.0481     1.9943 C.3     
  29 C29           -0.7414     3.2530     2.0338 C.2     
  30 C30           -1.2322     4.4307     2.3310 C.2     
  31 H31           -2.7696    -0.3896     1.3212 H       
  32 H32           -2.5886    -0.2493    -0.5089 H       
  33 H33           -0.0665    -0.1631    -0.2529 H       
  34 H34           -0.2474    -0.3034     1.5772 H       
  35 H35           -1.7417     4.4642     0.1737 H       
  36 H36            4.3170     2.9249    -0.8510 H       
  37 H37            4.2628     3.0174     0.9165 H       
  38 H38            3.3574     0.9547     1.0105 H       
  39 H39            3.4060     0.8538    -0.7775 H       
  40 H40            2.1812     8.0677     0.7249 H       
  41 H41            3.2199     7.7681    -0.6892 H       
  42 H42            1.4955     8.1467    -0.9158 H       
  43 H43           -0.6106     7.3135     0.4055 H       
  44 H44           -4.1027     8.1967    -2.5968 H       
  45 H45           -1.7406     5.1347    -4.3985 H       
  46 H46           -0.2348     5.1415    -2.4515 H       
  47 H47           -2.6810     2.3667     2.1148 H       
  48 H48           -1.3787     1.3669     2.8023 H       
  49 H49            0.3112     3.1456     1.8172 H       
  50 H50           -0.5842     5.2943     2.3593 H       
  51 H51           -2.2848     4.5381     2.5476 H       
@<TRIPOS>BOND
   1    1    2 1
   2    1    3 1
   3    1    4 1
   4    1   28 1
   5    2    3 1
   6    2   31 1
   7    2   32 1
   8    3   33 1
   9    3   34 1
  10    4    5 2
  11    4    6 2
  12    4    7 am
  13    7    9 1
  14    7   35 1
  15    8    9 2
  16    8   13 1
  17    8   14 1
  18    9   10 1
  19   10   11 2
  20   10   19 1
  21   11   12 1
  22   11   18 1
  23   12   13 am
  24   12   17 2
  25   13   15 1
  26   14   16 1
  27   15   16 1
  28   15   36 1
  29   15   37 1
  30   16   38 1
  31   16   39 1
  32   18   40 1
  33   18   41 1
  34   18   42 1
  35   19   20 1
  36   19   43 1
  37   20   21 ar
  38   20   25 ar
  39   21   22 ar
  40   21   27 1
  41   22   23 ar
  42   22   44 1
  43   23   24 ar
  44   23   26 1
  45   24   25 ar
  46   24   45 1
  47   25   46 1
  48   28   29 1
  49   28   47 1
  50   28   48 1
  51   29   30 2
  52   29   49 1
  53   30   50 1
  54   30   51 1

#	End of record

