#	Name: ASD06162003
#	Creating user name:	WinNT
#	Creation time:	15. 06. 2019 21:05

#	Modifying user name:	WinNT
#	Modification time:	15. 06. 2019 21:05

#	Program:	/corina/corina34_cracker 3.40 0067  02.08.2006

@<TRIPOS>MOLECULE
ASD06162003
  48   51    0    0    0
SMALL
NO_CHARGES


@<TRIPOS>ATOM
   1 C1            -0.0123     1.3410     0.0184 C.2     
   2 N2             0.0005     0.0044     0.0850 N.2     
   3 C3             1.1263    -0.6652     0.0663 C.2     
   4 C4             2.3586     0.0242    -0.0257 C.2     
   5 C5             2.3498     1.4035    -0.0946 C.2     
   6 N6             1.1554     2.0555    -0.0718 N.pl3   
   7 N7             0.8256     3.4145    -0.1252 N.2     
   8 C8            -0.4770     3.5447    -0.0715 C.2     
   9 C9            -1.0560     2.2726     0.0144 C.2     
  10 C10            3.6336    -0.7192    -0.0471 C.2     
  11 O11            4.0097    -1.2516    -1.0734 O.2     
  12 N12            4.3809    -0.8078     1.0710 N.am    
  13 C13            5.6463    -1.5457     1.0497 C.3     
  14 C14            6.2910    -1.4926     2.4362 C.3     
  15 O15            5.4644    -2.1866     3.3728 O.3     
  16 C16            5.8964    -2.2338     4.6605 C.ar    
  17 C17            5.1432    -2.8912     5.6223 C.ar    
  18 C18            5.5844    -2.9377     6.9306 C.ar    
  19 C19            6.7756    -2.3297     7.2817 C.ar    
  20 C20            7.5278    -1.6735     6.3250 C.ar    
  21 C21            7.0940    -1.6295     5.0142 C.ar    
  22 C22            3.6413     2.1738    -0.1933 C.3     
  23 C23           -2.5044     1.9696     0.0885 C.ar    
  24 C24           -3.3112     2.6307     1.0143 C.ar    
  25 C25           -4.6594     2.3446     1.0790 C.ar    
  26 C26           -5.2116     1.4033     0.2270 C.ar    
  27 C27           -4.4154     0.7441    -0.6940 C.ar    
  28 C28           -3.0670     1.0266    -0.7712 C.ar    
  29 Cl29          -6.9086     1.0479     0.3143 Cl      
  30 H30            1.1139    -1.7437     0.1214 H       
  31 H31           -1.0163     4.4801    -0.0938 H       
  32 H32            4.0808    -0.3831     1.8898 H       
  33 H33            5.4570    -2.5838     0.7765 H       
  34 H34            6.3178    -1.0944     0.3193 H       
  35 H35            7.2728    -1.9645     2.3987 H       
  36 H36            6.3990    -0.4535     2.7472 H       
  37 H37            4.2126    -3.3660     5.3487 H       
  38 H38            4.9983    -3.4491     7.6798 H       
  39 H39            7.1188    -2.3672     8.3050 H       
  40 H40            8.4575    -1.1988     6.6019 H       
  41 H41            7.6843    -1.1210     4.2663 H       
  42 H42            4.4822     1.4862    -0.1040 H       
  43 H43            3.6884     2.6822    -1.1563 H       
  44 H44            3.6873     2.9103     0.6089 H       
  45 H45           -2.8814     3.3648     1.6796 H       
  46 H46           -5.2850     2.8557     1.7959 H       
  47 H47           -4.8512     0.0105    -1.3560 H       
  48 H48           -2.4476     0.5150    -1.4930 H       
@<TRIPOS>BOND
   1    1    2 1
   2    1    6 1
   3    1    9 2
   4    2    3 2
   5    3    4 1
   6    3   30 1
   7    4    5 2
   8    4   10 1
   9    5    6 1
  10    5   22 1
  11    6    7 1
  12    7    8 2
  13    8    9 1
  14    8   31 1
  15    9   23 1
  16   10   11 2
  17   10   12 am
  18   12   13 1
  19   12   32 1
  20   13   14 1
  21   13   33 1
  22   13   34 1
  23   14   15 1
  24   14   35 1
  25   14   36 1
  26   15   16 1
  27   16   17 ar
  28   16   21 ar
  29   17   18 ar
  30   17   37 1
  31   18   19 ar
  32   18   38 1
  33   19   20 ar
  34   19   39 1
  35   20   21 ar
  36   20   40 1
  37   21   41 1
  38   22   42 1
  39   22   43 1
  40   22   44 1
  41   23   24 ar
  42   23   28 ar
  43   24   25 ar
  44   24   45 1
  45   25   26 ar
  46   25   46 1
  47   26   27 ar
  48   26   29 1
  49   27   28 ar
  50   27   47 1
  51   28   48 1

#	End of record

