#	Name: ASD09740377
#	Creating user name:	WinNT
#	Creation time:	15. 06. 2019 21:23

#	Modifying user name:	WinNT
#	Modification time:	15. 06. 2019 21:23

#	Program:	/corina/corina34_cracker 3.40 0067  02.08.2006

@<TRIPOS>MOLECULE
ASD09740377
  47   50    0    0    0
SMALL
NO_CHARGES


@<TRIPOS>ATOM
   1 O1            -0.0144     1.2085     0.0087 O.3     
   2 N2             0.0021    -0.0041     0.0020 N.2     
   3 C3             1.2413     1.6829    -0.0008 C.2     
   4 N4             2.0461     0.6362    -0.0141 N.2     
   5 C5             1.2351    -0.4424    -0.0121 C.2     
   6 C6             1.6626    -1.8634    -0.0231 C.ar    
   7 C7             1.6453     3.1035     0.0026 C.ar    
   8 C8             0.7093    -2.8722    -0.0195 C.ar    
   9 C9             1.1191    -4.2058    -0.0299 C.ar    
  10 C10            2.4925    -4.5083    -0.0438 C.ar    
  11 C11            3.4315    -3.4847    -0.0468 C.ar    
  12 C12            3.0239    -2.1809    -0.0428 C.ar    
  13 C13            0.6741     4.1072     0.0173 C.ar    
  14 C14            1.0572     5.4350     0.0203 C.ar    
  15 C15            2.4098     5.7699     0.0087 C.ar    
  16 C16            3.3746     4.7724    -0.0059 C.ar    
  17 C17            2.9991     3.4460    -0.0032 C.ar    
  18 O18            2.7849     7.0757     0.0112 O.3     
  19 C19            4.1877     7.3478    -0.0012 C.3     
  20 C20            4.4138     8.8610     0.0038 C.3     
  21 O21            0.1141     6.4148     0.0342 O.3     
  22 C22           -1.2530     5.9992     0.0451 C.3     
  23 C23           -2.1604     7.2310     0.0599 C.3     
  24 N24            2.5777    -5.8857    -0.0515 N.pl3   
  25 C25            1.3067    -6.3709    -0.0424 C.2     
  26 N26            0.4529    -5.3895    -0.0298 N.2     
  27 C27            0.9411    -7.8329    -0.0468 C.3     
  28 F28           -0.4111    -7.9744    -0.3766 F       
  29 F29            1.7241    -8.5066    -0.9904 F       
  30 F30            1.1708    -8.3749     1.2223 F       
  31 H31           -0.3424    -2.6266    -0.0084 H       
  32 H32            4.4855    -3.7201    -0.0572 H       
  33 H33            3.7589    -1.3895    -0.0455 H       
  34 H34           -0.3738     3.8462     0.0259 H       
  35 H35            4.4219     5.0359    -0.0153 H       
  36 H36            3.7519     2.6717    -0.0146 H       
  37 H37            4.6509     6.9083     0.8822 H       
  38 H38            4.6335     6.9168    -0.8976 H       
  39 H39            5.4838     9.0685    -0.0057 H       
  40 H40            3.9506     9.3005    -0.8796 H       
  41 H41            3.9680     9.2920     0.9002 H       
  42 H42           -1.4597     5.4064    -0.8460 H       
  43 H43           -1.4428     5.3975     0.9339 H       
  44 H44           -3.2033     6.9140     0.0682 H       
  45 H45           -1.9538     7.8238     0.9509 H       
  46 H46           -1.9707     7.8328    -0.8289 H       
  47 H47            3.3932    -6.4109    -0.0615 H       
@<TRIPOS>BOND
   1    1    2 1
   2    1    3 1
   3    2    5 2
   4    3    4 2
   5    3    7 1
   6    4    5 1
   7    5    6 1
   8    6    8 ar
   9    6   12 ar
  10    7   13 ar
  11    7   17 ar
  12    8    9 ar
  13    8   31 1
  14    9   10 ar
  15    9   26 1
  16   10   11 ar
  17   10   24 1
  18   11   12 ar
  19   11   32 1
  20   12   33 1
  21   13   14 ar
  22   13   34 1
  23   14   15 ar
  24   14   21 1
  25   15   16 ar
  26   15   18 1
  27   16   17 ar
  28   16   35 1
  29   17   36 1
  30   18   19 1
  31   19   20 1
  32   19   37 1
  33   19   38 1
  34   20   39 1
  35   20   40 1
  36   20   41 1
  37   21   22 1
  38   22   23 1
  39   22   42 1
  40   22   43 1
  41   23   44 1
  42   23   45 1
  43   23   46 1
  44   24   25 1
  45   24   47 1
  46   25   26 2
  47   25   27 1
  48   27   28 1
  49   27   29 1
  50   27   30 1

#	End of record

