#	Name: ASD03430462
#	Creating user name:	WinNT
#	Creation time:	15. 06. 2019 20:41

#	Modifying user name:	WinNT
#	Modification time:	15. 06. 2019 20:41

#	Program:	/corina/corina34_cracker 3.40 0067  02.08.2006

@<TRIPOS>MOLECULE
ASD03430462
  54   59    0    0    0
SMALL
NO_CHARGES


@<TRIPOS>ATOM
   1 N1            -0.0161     1.3394     0.0094 N.am    
   2 C2             0.0021    -0.0041     0.0020 C.2     
   3 C3             1.4546    -0.4302    -0.0141 C.3     
   4 C4             2.2206     0.8729    -0.0140 C.ar    
   5 C5             3.5664     1.1670    -0.0242 C.ar    
   6 C6             3.9878     2.4889    -0.0199 C.ar    
   7 C7             3.0467     3.5123    -0.0085 C.ar    
   8 C8             1.6949     3.2119     0.0022 C.ar    
   9 C9             1.2702     1.8854     0.0001 C.ar    
  10 O10            5.3208     2.7658    -0.0224 O.3     
  11 O11            3.4392     4.8163    -0.0116 O.3     
  12 C12            4.7964     5.0809     0.3587 C.3     
  13 C13            5.7010     4.0954    -0.3934 C.3     
  14 O14           -0.9638    -0.7377     0.0076 O.2     
  15 C15           -1.2432     2.1397     0.0198 C.3     
  16 O16           -1.9333     1.1730     2.1337 O.3     
  17 C17           -1.6630     2.4109     1.4658 C.3     
  18 C18           -2.9616     3.2454     1.4864 C.3     
  19 C19           -3.7429     2.6102     2.6689 C.3     
  20 C20           -3.3087     1.1280     2.5458 C.3     
  21 O21            2.7238    -3.6189     4.4579 O.3     
  22 C22            3.5589    -4.6394     3.8853 C.3     
  23 C23            3.1050    -4.6641     2.4065 C.3     
  24 C24            2.5639    -3.2593     2.2217 C.ar    
  25 C25            2.3799    -2.7243     3.4911 C.ar    
  26 C26            1.8976    -1.4245     3.6103 C.ar    
  27 C27            1.6007    -0.6852     2.4779 C.ar    
  28 C28            1.7822    -1.2352     1.2170 C.ar    
  29 C29            2.2647    -2.5255     1.0951 C.ar    
  30 O30            1.1293     0.5834     2.6018 O.3     
  31 O31            1.7431    -1.1803    -1.1956 O.3     
  32 H32            4.2935     0.3686    -0.0353 H       
  33 H33            0.9668     4.0096     0.0131 H       
  34 H34            5.0593     6.1029     0.0856 H       
  35 H35            4.9176     4.9444     1.4333 H       
  36 H36            6.7418     4.2698    -0.1204 H       
  37 H37            5.5752     4.2274    -1.4680 H       
  38 H38           -1.0640     3.0862    -0.4902 H       
  39 H39           -2.0363     1.5953    -0.4928 H       
  40 H40           -0.8705     2.9473     1.9877 H       
  41 H41           -2.7450     4.2953     1.6840 H       
  42 H42           -3.5113     3.1307     0.5522 H       
  43 H43           -3.4264     3.0344     3.6218 H       
  44 H44           -4.8189     2.7171     2.5314 H       
  45 H45           -3.9121     0.6181     1.7948 H       
  46 H46           -3.3987     0.6261     3.5091 H       
  47 H47            4.6111    -4.3651     3.9617 H       
  48 H48            3.3741    -5.6020     4.3620 H       
  49 H49            3.9500    -4.8465     1.7426 H       
  50 H50            2.3223    -5.4066     2.2516 H       
  51 H51            1.7546    -0.9910     4.5891 H       
  52 H52            2.4076    -2.9578     0.1157 H       
  53 H53            1.8203     1.2595     2.6225 H       
  54 H54            1.2337    -1.9983    -1.2763 H       
@<TRIPOS>BOND
   1    1    2 am
   2    1    9 1
   3    1   15 1
   4    2    3 1
   5    2   14 2
   6    3    4 1
   7    3   28 1
   8    3   31 1
   9    4    5 ar
  10    4    9 ar
  11    5    6 ar
  12    5   32 1
  13    6    7 ar
  14    6   10 1
  15    7    8 ar
  16    7   11 1
  17    8    9 ar
  18    8   33 1
  19   10   13 1
  20   11   12 1
  21   12   13 1
  22   12   34 1
  23   12   35 1
  24   13   36 1
  25   13   37 1
  26   15   17 1
  27   15   38 1
  28   15   39 1
  29   16   17 1
  30   16   20 1
  31   17   18 1
  32   17   40 1
  33   18   19 1
  34   18   41 1
  35   18   42 1
  36   19   20 1
  37   19   43 1
  38   19   44 1
  39   20   45 1
  40   20   46 1
  41   21   22 1
  42   21   25 1
  43   22   23 1
  44   22   47 1
  45   22   48 1
  46   23   24 1
  47   23   49 1
  48   23   50 1
  49   24   25 ar
  50   24   29 ar
  51   25   26 ar
  52   26   27 ar
  53   26   51 1
  54   27   28 ar
  55   27   30 1
  56   28   29 ar
  57   29   52 1
  58   30   53 1
  59   31   54 1

#	End of record

