#	Name: ASD07930667
#	Creating user name:	WinNT
#	Creation time:	15. 06. 2019 21:12

#	Modifying user name:	WinNT
#	Modification time:	15. 06. 2019 21:12

#	Program:	/corina/corina34_cracker 3.40 0067  02.08.2006

@<TRIPOS>MOLECULE
ASD07930667
  32   33    0    0    0
SMALL
NO_CHARGES


@<TRIPOS>ATOM
   1 C1            -0.3863     1.3076    -0.0529 C.3     
   2 N2             0.3538    -0.4124    -2.3777 N.2     
   3 N3            -1.1345    -1.9379    -1.4190 N.pl3   
   4 C4            -0.9809    -3.0184    -0.4392 C.3     
   5 C5            -1.2032    -2.4572     0.9721 C.3     
   6 S6            -0.0373    -1.0831     1.2305 S.o2    
   7 N7            -0.2622    -0.1500    -0.1316 N.am    
   8 C8            -0.3266    -0.8218    -1.3441 C.2     
   9 C9             0.4294    -3.6030    -0.5402 C.3     
  10 O10           -0.4628    -0.2559     2.3048 O.2     
  11 O11            1.3059    -1.5367     1.1353 O.2     
  12 C12           -1.9952    -4.0977    -0.7171 C.2     
  13 S13           -1.6211    -5.7947    -0.9886 S.3     
  14 C14           -3.3269    -6.1684    -1.1980 C.2     
  15 C15           -4.0492    -5.0546    -1.0597 C.2     
  16 C16           -3.3140    -3.9130    -0.7891 C.2     
  17 Br17          -4.0300    -7.8855    -1.5632 Br      
  18 C18           -3.9546    -2.5621    -0.6003 C.3     
  19 F19           -5.3101    -2.6375    -0.9383 F       
  20 F20           -3.8284    -2.1688     0.7363 F       
  21 F21           -3.3201    -1.6259    -1.4238 F       
  22 H22            0.6011     1.7615    -0.1382 H       
  23 H23           -1.0207     1.6626    -0.8650 H       
  24 H24           -0.8315     1.5833     0.9031 H       
  25 H25            0.9171     0.3741    -2.3070 H       
  26 H26           -1.8002    -2.0096    -2.1208 H       
  27 H27           -2.2265    -2.0935     1.0659 H       
  28 H28           -1.0209    -3.2377     1.7108 H       
  29 H29            1.1625    -2.8020    -0.4454 H       
  30 H30            0.5797    -4.3294     0.2585 H       
  31 H31            0.5508    -4.0943    -1.5056 H       
  32 H32           -5.1255    -5.0451    -1.1485 H       
@<TRIPOS>BOND
   1    1    7 1
   2    1   22 1
   3    1   23 1
   4    1   24 1
   5    2    8 2
   6    2   25 1
   7    3    4 1
   8    3    8 1
   9    3   26 1
  10    4    5 1
  11    4    9 1
  12    4   12 1
  13    5    6 1
  14    5   27 1
  15    5   28 1
  16    6    7 am
  17    6   10 2
  18    6   11 2
  19    7    8 1
  20    9   29 1
  21    9   30 1
  22    9   31 1
  23   12   13 1
  24   12   16 2
  25   13   14 1
  26   14   15 2
  27   14   17 1
  28   15   16 1
  29   15   32 1
  30   16   18 1
  31   18   19 1
  32   18   20 1
  33   18   21 1

#	End of record

