#	Name: ASD04882252
#	Creating user name:	WinNT
#	Creation time:	15. 06. 2019 20:54

#	Modifying user name:	WinNT
#	Modification time:	15. 06. 2019 20:54

#	Program:	/corina/corina34_cracker 3.40 0067  02.08.2006

@<TRIPOS>MOLECULE
ASD04882252
  71   75    0    0    0
SMALL
NO_CHARGES


@<TRIPOS>ATOM
   1 N1            -0.1365     1.5554    -0.0361 N.am    
   2 C2            -0.0766     0.1558    -0.0457 C.ar    
   3 C3            -1.2530    -0.5952     0.0293 C.ar    
   4 C4            -1.1950    -1.9841     0.0194 C.ar    
   5 C5             0.0211    -2.6251    -0.0639 C.ar    
   6 C6             1.2013    -1.8802    -0.1392 C.ar    
   7 C7             1.1455    -0.4836    -0.1352 C.ar    
   8 N8            -2.4847     0.0487     0.1145 N.3     
   9 C9            -2.6117     0.7766     1.3849 C.3     
  10 C10           -3.5902    -0.9044    -0.0558 C.3     
  11 C11           -4.9204    -0.1478    -0.0352 C.3     
  12 N12           -5.0474     0.5800     1.2351 N.3     
  13 C13           -3.9419     1.5332     1.4055 C.3     
  14 C14            2.5039    -2.5670    -0.2285 C.2     
  15 O15            3.5302    -1.9182    -0.2939 O.2     
  16 C16           -6.2829     1.2259     1.3207 C.ar    
  17 C17           -6.6351     2.1823     0.3771 C.ar    
  18 C18           -7.1646     0.9091     2.3465 C.ar    
  19 C19           -8.3852     1.5495     2.4281 C.ar    
  20 C20           -8.7306     2.5052     1.4899 C.ar    
  21 C21           -7.8577     2.8191     0.4646 C.ar    
  22 C22            0.8450     2.2679     0.5515 C.2     
  23 C23            0.8480     3.7310     0.4541 C.2     
  24 O24            1.7290     1.6969     1.1631 O.2     
  25 O25           -0.0674     4.4845    -0.1896 O.3     
  26 C26            1.7745     4.5700     1.0041 C.2     
  27 C27            1.3887     5.8759     0.6637 C.2     
  28 C28            0.2563     5.7784    -0.0670 C.2     
  29 C29           -6.7895    -0.1327     3.3688 C.3     
  30 N30            2.5564    -3.9138    -0.2374 N.am    
  31 C31            3.8499    -4.5959    -0.3260 C.3     
  32 C32            3.6330    -6.0871    -0.3177 C.ar    
  33 C33            3.4544    -6.7638    -1.5112 C.ar    
  34 C34            3.6190    -6.7744     0.8831 C.ar    
  35 C35            3.4219    -8.1397     0.8976 C.ar    
  36 C36            3.2358    -8.8277    -0.3025 C.ar    
  37 C37            3.2554    -8.1290    -1.5106 C.ar    
  38 C38            3.0244   -10.2909    -0.2944 C.2     
  39 O39            3.0125   -10.8975     0.7589 O.2     
  40 N40            2.8451   -10.9523    -1.4549 N.am    
  41 H41           -0.8825     2.0118    -0.4559 H       
  42 H42           -2.1057    -2.5618     0.0775 H       
  43 H43            0.0628    -3.7043    -0.0707 H       
  44 H44            2.0558     0.0946    -0.1932 H       
  45 H45           -2.5828     0.0692     2.2137 H       
  46 H46           -1.7889     1.4848     1.4820 H       
  47 H47           -3.4808    -1.4217    -1.0090 H       
  48 H48           -3.5724    -1.6309     0.7567 H       
  49 H49           -4.9493     0.5596    -0.8640 H       
  50 H50           -5.7432    -0.8561    -0.1323 H       
  51 H51           -4.0514     2.0505     2.3587 H       
  52 H52           -3.9597     2.2597     0.5930 H       
  53 H53           -5.9537     2.4280    -0.4240 H       
  54 H54           -9.0711     1.3037     3.2254 H       
  55 H55           -9.6862     3.0041     1.5556 H       
  56 H56           -8.1304     3.5658    -0.2664 H       
  57 H57            2.6368     4.2840     1.5881 H       
  58 H58            1.8995     6.7875     0.9368 H       
  59 H59           -0.2966     6.6073    -0.4838 H       
  60 H60           -6.2767     0.3453     4.2034 H       
  61 H61           -7.6908    -0.6272     3.7311 H       
  62 H62           -6.1297    -0.8698     2.9111 H       
  63 H63            1.7377    -4.4314    -0.1852 H       
  64 H64            4.3506    -4.3067    -1.2500 H       
  65 H65            4.4684    -4.3139     0.5260 H       
  66 H66            3.4705    -6.2221    -2.4454 H       
  67 H67            3.7631    -6.2409     1.8109 H       
  68 H68            3.4119    -8.6751     1.8355 H       
  69 H69            3.1117    -8.6554    -2.4426 H       
  70 H70            2.8546   -10.4683    -2.2955 H       
  71 H71            2.7064   -11.9123    -1.4496 H       
@<TRIPOS>BOND
   1    1    2 1
   2    1   22 am
   3    1   41 1
   4    2    3 ar
   5    2    7 ar
   6    3    4 ar
   7    3    8 1
   8    4    5 ar
   9    4   42 1
  10    5    6 ar
  11    5   43 1
  12    6    7 ar
  13    6   14 1
  14    7   44 1
  15    8    9 1
  16    8   10 1
  17    9   13 1
  18    9   45 1
  19    9   46 1
  20   10   11 1
  21   10   47 1
  22   10   48 1
  23   11   12 1
  24   11   49 1
  25   11   50 1
  26   12   13 1
  27   12   16 1
  28   13   51 1
  29   13   52 1
  30   14   15 2
  31   14   30 am
  32   16   17 ar
  33   16   18 ar
  34   17   21 ar
  35   17   53 1
  36   18   19 ar
  37   18   29 1
  38   19   20 ar
  39   19   54 1
  40   20   21 ar
  41   20   55 1
  42   21   56 1
  43   22   24 2
  44   22   23 1
  45   23   25 1
  46   23   26 2
  47   25   28 1
  48   26   27 1
  49   26   57 1
  50   27   28 2
  51   27   58 1
  52   28   59 1
  53   29   60 1
  54   29   61 1
  55   29   62 1
  56   30   31 1
  57   30   63 1
  58   31   32 1
  59   31   64 1
  60   31   65 1
  61   32   33 ar
  62   32   34 ar
  63   33   37 ar
  64   33   66 1
  65   34   35 ar
  66   34   67 1
  67   35   36 ar
  68   35   68 1
  69   36   37 ar
  70   36   38 1
  71   37   69 1
  72   38   39 2
  73   38   40 am
  74   40   70 1
  75   40   71 1

#	End of record

