#	Name: ASD01230312
#	Creating user name:	WinNT
#	Creation time:	15. 06. 2019 19:14

#	Modifying user name:	WinNT
#	Modification time:	15. 06. 2019 19:14

#	Program:	/corina/corina34_cracker 3.40 0067  02.08.2006

@<TRIPOS>MOLECULE
ASD01230312
  26   27    0    0    0
SMALL
NO_CHARGES


@<TRIPOS>ATOM
   1 C1             0.1749     1.4459    -0.7024 C.ar    
   2 C2             0.1882     0.0767    -0.8505 C.ar    
   3 C3             1.3581    -0.6364    -0.6545 C.ar    
   4 C4             2.5145     0.0334    -0.2951 C.ar    
   5 C5             2.4990     1.4033    -0.1333 C.ar    
   6 C6             1.3410     2.1340    -0.3526 C.ar    
   7 N7             1.2751     3.5191    -0.2822 N.3     
   8 S8             3.9709     2.2340     0.3913 S.o2    
   9 N9             3.5769     3.8544     0.2855 N.am    
  10 C10            2.1818     4.1770     0.6496 C.3     
  11 Cl11           1.3747    -2.3604    -0.8576 Cl      
  12 O12            4.1424     1.9395     1.7708 O.2     
  13 O13            4.9610     1.9840    -0.5969 O.2     
  14 C14            1.9731     5.6912     0.5821 C.3     
  15 C15           -0.1079     3.9707    -0.0786 C.3     
  16 H16           -0.7424     1.9931    -0.8621 H       
  17 H17           -0.7190    -0.4433    -1.1206 H       
  18 H18            3.4306    -0.5173    -0.1408 H       
  19 H19            4.2138     4.5305     0.0060 H       
  20 H20            1.9806     3.8263     1.6618 H       
  21 H21            0.9899     5.9406     0.9813 H       
  22 H22            2.7419     6.1906     1.1717 H       
  23 H23            2.0386     6.0212    -0.4546 H       
  24 H24           -0.5229     3.4835     0.8038 H       
  25 H25           -0.1201     5.0513     0.0636 H       
  26 H26           -0.7068     3.7123    -0.9518 H       
@<TRIPOS>BOND
   1    1    2 ar
   2    1    6 ar
   3    1   16 1
   4    2    3 ar
   5    2   17 1
   6    3    4 ar
   7    3   11 1
   8    4    5 ar
   9    4   18 1
  10    5    6 ar
  11    5    8 1
  12    6    7 1
  13    7   10 1
  14    7   15 1
  15    8    9 am
  16    8   12 2
  17    8   13 2
  18    9   10 1
  19    9   19 1
  20   10   14 1
  21   10   20 1
  22   14   21 1
  23   14   22 1
  24   14   23 1
  25   15   24 1
  26   15   25 1
  27   15   26 1

#	End of record

