#	Name: ASD03180003
#	Creating user name:	WinNT
#	Creation time:	15. 06. 2019 20:33

#	Modifying user name:	WinNT
#	Modification time:	15. 06. 2019 20:33

#	Program:	/corina/corina34_cracker 3.40 0067  02.08.2006

@<TRIPOS>MOLECULE
ASD03180003
  44   48    0    0    0
SMALL
NO_CHARGES


@<TRIPOS>ATOM
   1 C1            -0.2781     1.3831     0.5576 C.ar    
   2 C2            -0.1871    -0.0037     0.4037 C.ar    
   3 C3            -1.3715    -0.7180     0.2792 C.ar    
   4 C4            -2.6405    -0.1967     0.3581 C.ar    
   5 C5            -2.7164     1.1769     0.5066 C.ar    
   6 C6            -1.5586     1.9318     0.6030 C.ar    
   7 O7             0.8324     2.1608     0.6640 O.3     
   8 C8            -0.9988    -2.1681     0.0936 C.3     
   9 C9            -2.0943    -2.9960     0.7254 C.3     
  10 C10           -3.4217    -2.5782     0.1017 C.3     
  11 C11           -3.8091    -1.1276     0.3331 C.3     
  12 O12           -1.8631    -4.3561     0.3530 O.3     
  13 C13            0.3747    -2.1855     0.7625 C.3     
  14 C14            0.1877    -2.0981     2.2662 C.2     
  15 C15           -1.0348    -2.5599     2.9063 C.2     
  16 C16           -2.1046    -2.9398     2.2105 C.2     
  17 O17            0.8670    -0.8507     0.3917 O.3     
  18 O18            1.0766    -1.6338     2.9491 O.2     
  19 N19           -3.3720    -2.8693    -1.3392 N.4     
  20 C20           -4.6603    -2.5090    -1.9462 C.3     
  21 H21           -3.2105    -3.8566    -1.4706 H       
  22 C22           -2.3037    -2.1185    -2.0027 C.3     
  23 C23           -0.9351    -2.4738    -1.4033 C.3     
  24 C24           -4.6813    -2.9590    -3.3843 C.2     
  25 C25           -5.6448    -3.7358    -3.8135 C.2     
  26 H26           -3.6806     1.6613     0.5518 H       
  27 H27           -1.6531     3.0023     0.7095 H       
  28 H28            1.1687     2.4842    -0.1831 H       
  29 H29           -4.2040    -3.2062     0.5281 H       
  30 H30           -4.3346    -1.0541     1.2852 H       
  31 H31           -4.4868    -0.8161    -0.4617 H       
  32 H32           -2.5137    -4.9771     0.7081 H       
  33 H33            1.0116    -3.0113     0.4451 H       
  34 H34           -1.0798    -2.5871     3.9850 H       
  35 H35           -2.9977    -3.2325     2.7427 H       
  36 H36           -5.4681    -2.9971    -1.4009 H       
  37 H37           -4.7932    -1.4280    -1.9018 H       
  38 H38           -2.3031    -2.3590    -3.0659 H       
  39 H39           -2.4841    -1.0509    -1.8773 H       
  40 H40           -0.1574    -1.8707    -1.8720 H       
  41 H41           -0.7269    -3.5327    -1.5567 H       
  42 H42           -3.9019    -2.6411    -4.0611 H       
  43 H43           -6.4241    -4.0538    -3.1368 H       
  44 H44           -5.6598    -4.0583    -4.8442 H       
@<TRIPOS>BOND
   1    1    2 ar
   2    1    7 1
   3    1    6 ar
   4    2    3 ar
   5    2   17 1
   6    3    4 ar
   7    3    8 1
   8    4    5 ar
   9    4   11 1
  10    5    6 ar
  11    5   26 1
  12    6   27 1
  13    7   28 1
  14    8    9 1
  15    8   23 1
  16    8   13 1
  17    9   12 1
  18    9   10 1
  19    9   16 1
  20   10   11 1
  21   10   19 1
  22   10   29 1
  23   11   30 1
  24   11   31 1
  25   12   32 1
  26   13   14 1
  27   13   17 1
  28   13   33 1
  29   14   15 1
  30   14   18 2
  31   15   16 2
  32   15   34 1
  33   16   35 1
  34   19   20 1
  35   19   21 1
  36   19   22 1
  37   20   24 1
  38   20   36 1
  39   20   37 1
  40   22   23 1
  41   22   38 1
  42   22   39 1
  43   23   40 1
  44   23   41 1
  45   24   25 2
  46   24   42 1
  47   25   43 1
  48   25   44 1

#	End of record

