#	Name: ASD01810765
#	Creating user name:	WinNT
#	Creation time:	15. 06. 2019 19:25

#	Modifying user name:	WinNT
#	Modification time:	15. 06. 2019 19:25

#	Program:	/corina/corina34_cracker 3.40 0067  02.08.2006

@<TRIPOS>MOLECULE
ASD01810765
  59   62    0    0    0
SMALL
NO_CHARGES


@<TRIPOS>ATOM
   1 N1            -0.0499     1.2733     0.1371 N.2     
   2 N2            -0.0384    -0.0119     0.1591 N.2     
   3 C3             1.2043    -0.4477     0.1455 C.2     
   4 N4             2.0202     0.6559     0.1126 N.pl3   
   5 C5             1.1873     1.7335     0.1081 C.2     
   6 C6             1.6377    -1.8555     0.1628 C.2     
   7 O7             2.8231    -2.1270     0.1478 O.2     
   8 N8             0.7205    -2.8425     0.1954 N.am    
   9 C9             1.1515    -4.2426     0.2127 C.3     
  10 C10            1.5932     3.1548     0.0767 C.ar    
  11 C11            0.6231     4.1601     0.0764 C.ar    
  12 C12            1.0005     5.4877     0.0471 C.ar    
  13 C13            2.3377     5.8315     0.0180 C.ar    
  14 C14            3.3178     4.8366     0.0180 C.ar    
  15 C15            2.9440     3.4947     0.0532 C.ar    
  16 C16            2.7402     7.2834    -0.0144 C.3     
  17 C17           -0.8385     3.7944     0.1075 C.3     
  18 C18            4.7491     5.2065    -0.0143 C.2     
  19 O19            5.2009     5.9607     0.8251 O.2     
  20 N20            5.5526     4.7075    -0.9744 N.am    
  21 C21            6.9541     5.1369    -1.0754 C.3     
  22 C22            7.2178     5.6276    -2.5025 C.3     
  23 C23            6.8228     4.5321    -3.4955 C.3     
  24 C24            5.3290     4.2300    -3.3568 C.3     
  25 C25            5.0455     3.7192    -1.9360 C.3     
  26 C26            7.1126     4.9984    -4.8989 C.ar    
  27 C27            7.9962     4.2879    -5.6920 C.ar    
  28 C28            8.2660     4.7090    -6.9775 C.ar    
  29 C29            7.6449     5.8550    -7.4782 C.ar    
  30 C30            6.7539     6.5670    -6.6725 C.ar    
  31 C31            6.4896     6.1318    -5.3904 C.ar    
  32 C32            7.9206     6.2983    -8.8116 C.1     
  33 N33            8.1393     6.6500    -9.8694 N.1     
  34 H34            2.9900     0.6661     0.0964 H       
  35 H35           -0.2249    -2.6259     0.2074 H       
  36 H36            0.2764    -4.8918     0.2386 H       
  37 H37            1.7346    -4.4543    -0.6836 H       
  38 H38            1.7643    -4.4232     1.0958 H       
  39 H39            0.2465     6.2610     0.0466 H       
  40 H40            3.6981     2.7216     0.0575 H       
  41 H41            2.7700     7.6749     1.0024 H       
  42 H42            3.7265     7.3770    -0.4689 H       
  43 H43            2.0151     7.8484    -0.6002 H       
  44 H44           -1.1733     3.7236     1.1424 H       
  45 H45           -1.4159     4.5609    -0.4095 H       
  46 H46           -0.9835     2.8344    -0.3878 H       
  47 H47            7.1398     5.9471    -0.3703 H       
  48 H48            7.6109     4.2965    -0.8508 H       
  49 H49            6.6265     6.5229    -2.6944 H       
  50 H50            8.2767     5.8587    -2.6179 H       
  51 H51            7.3968     3.6291    -3.2872 H       
  52 H52            4.7555     5.1385    -3.5407 H       
  53 H53            5.0436     3.4663    -4.0804 H       
  54 H54            5.5497     2.7655    -1.7801 H       
  55 H55            3.9714     3.5937    -1.7988 H       
  56 H56            8.4759     3.4017    -5.3035 H       
  57 H57            8.9564     4.1539    -7.5953 H       
  58 H58            6.2701     7.4541    -7.0535 H       
  59 H59            5.7976     6.6792    -4.7676 H       
@<TRIPOS>BOND
   1    1    2 1
   2    1    5 2
   3    2    3 2
   4    3    4 1
   5    3    6 1
   6    4    5 1
   7    4   34 1
   8    5   10 1
   9    6    7 2
  10    6    8 am
  11    8    9 1
  12    8   35 1
  13    9   36 1
  14    9   37 1
  15    9   38 1
  16   10   11 ar
  17   10   15 ar
  18   11   12 ar
  19   11   17 1
  20   12   13 ar
  21   12   39 1
  22   13   14 ar
  23   13   16 1
  24   14   15 ar
  25   14   18 1
  26   15   40 1
  27   16   41 1
  28   16   42 1
  29   16   43 1
  30   17   44 1
  31   17   45 1
  32   17   46 1
  33   18   19 2
  34   18   20 am
  35   20   21 1
  36   20   25 1
  37   21   22 1
  38   21   47 1
  39   21   48 1
  40   22   23 1
  41   22   49 1
  42   22   50 1
  43   23   24 1
  44   23   26 1
  45   23   51 1
  46   24   25 1
  47   24   52 1
  48   24   53 1
  49   25   54 1
  50   25   55 1
  51   26   27 ar
  52   26   31 ar
  53   27   28 ar
  54   27   56 1
  55   28   29 ar
  56   28   57 1
  57   29   30 ar
  58   29   32 1
  59   30   31 ar
  60   30   58 1
  61   31   59 1
  62   32   33 3

#	End of record

