#	Name: ASD01030046
#	Creating user name:	WinNT
#	Creation time:	15. 06. 2019 18:58

#	Modifying user name:	WinNT
#	Modification time:	15. 06. 2019 18:58

#	Program:	/corina/corina34_cracker 3.40 0067  02.08.2006

@<TRIPOS>MOLECULE
ASD01030046
 106  111    0    0    0
SMALL
NO_CHARGES


@<TRIPOS>ATOM
   1 C1             2.1235     0.2479     6.0499 C.3     
   2 C2             2.5452    -1.0289     6.7872 C.3     
   3 C3             2.8099    -2.1412     5.7816 C.3     
   4 C4             3.9007    -1.7825     4.7919 C.3     
   5 C5             3.6519    -0.4671     4.0833 C.3     
   6 C6             3.2363     0.6241     5.0784 C.3     
   7 C7             3.3474     2.0676     4.5868 C.3     
   8 C8             4.9319     0.0251     3.3897 C.3     
   9 C9             4.6152     1.2937     2.6389 C.2     
  10 C10            3.8702     2.2324     3.1731 C.2     
  11 C11            1.9624     4.1758     4.1532 C.3     
  12 C12            2.4076     3.1185     5.1675 C.3     
  13 C13            3.1965     4.5799     3.3696 C.3     
  14 C14            3.0788     5.7863     2.4473 C.3     
  15 C15            3.4632     3.4179     2.3731 C.3     
  16 C16            4.5062     4.0496     1.4516 C.3     
  17 C17            3.9690     5.4688     1.2483 C.2     
  18 C18            4.3725     1.5101     5.5998 C.3     
  19 O19            3.1973    -3.3209     6.4889 O.3     
  20 C20            5.2331    -1.6946     5.5387 C.3     
  21 O21            4.5710     3.3504     0.2070 O.3     
  22 H22            2.8658    -0.5985     3.3397 H       
  23 C23            2.1881     3.1025     1.5885 C.3     
  24 H24            2.0454     5.9163     2.1261 H       
  25 C25            3.9999    -2.8940     3.7451 C.3     
  26 C26            2.1039    -4.1664     6.8517 C.3     
  27 O27            1.2652    -3.4858     7.7873 O.3     
  28 C28            0.1210    -4.2365     8.1989 C.3     
  29 C29            0.5785    -5.5229     8.8913 C.3     
  30 C30            1.4627    -6.3239     7.9305 C.3     
  31 C31            2.6411    -5.4501     7.4899 C.3     
  32 O32           -0.5631    -6.3029     9.2523 O.3     
  33 O33            1.9542    -7.4906     8.5933 O.3     
  34 O34            3.4334    -6.1618     6.5371 O.3     
  35 C35            4.3819     4.7622     4.3197 C.3     
  36 C36            3.5744     7.0471     3.1583 C.3     
  37 O37            4.2045     6.1990     0.3157 O.2     
  38 C38            2.6485     7.3671     4.3335 C.3     
  39 C39            3.5752     8.2198     2.1756 C.3     
  40 C40            4.1869     9.4496     2.8496 C.3     
  41 C41            4.0746    10.6537     1.9124 C.3     
  42 C42            4.5379    11.9148     2.6444 C.3     
  43 C43            4.4577    13.1132     1.6966 C.3     
  44 C44            3.6365    12.1614     3.8559 C.3     
  45 O45            5.8874    11.7429     3.0820 O.3     
  46 O46            2.7150    10.8131     1.5026 O.3     
  47 O47            5.5856     9.1944     3.1443 O.3     
  48 C48            5.9497     9.2142     4.4362 C.2     
  49 O49            5.1561     9.5520     5.2823 O.2     
  50 C50            7.3481     8.8150     4.8311 C.3     
  51 H51            1.2001     0.0672     5.4997 H       
  52 H52            1.9732     1.0545     6.7675 H       
  53 H53            3.4523    -0.8342     7.3593 H       
  54 H54            1.7489    -1.3356     7.4654 H       
  55 H55            1.8904    -2.3470     5.2336 H       
  56 H56            5.6996     0.2243     4.1373 H       
  57 H57            5.2852    -0.7344     2.6922 H       
  58 H58            5.0092     1.4324     1.6430 H       
  59 H59            1.2152     3.7551     3.4803 H       
  60 H60            1.5516     5.0412     4.6733 H       
  61 H61            1.5225     2.6163     5.5581 H       
  62 H62            2.9130     3.6192     5.9933 H       
  63 H63            5.4835     4.0725     1.9338 H       
  64 H64            4.3058     1.8615     6.6294 H       
  65 H65            5.3794     1.3043     5.2364 H       
  66 H66            5.4548    -2.6567     6.0008 H       
  67 H67            6.0266    -1.4371     4.8372 H       
  68 H68            5.1672    -0.9276     6.3103 H       
  69 H69            5.2183     3.7119    -0.4139 H       
  70 H70            1.4451     2.6726     2.2603 H       
  71 H71            1.7945     4.0198     1.1508 H       
  72 H72            2.4163     2.3902     0.7956 H       
  73 H73            3.0464    -2.9902     3.2258 H       
  74 H74            4.7817    -2.6478     3.0266 H       
  75 H75            4.2422    -3.8360     4.2372 H       
  76 H76            1.5270    -4.4168     5.9614 H       
  77 H77           -0.4735    -3.6420     8.8926 H       
  78 H78           -0.4819    -4.4879     7.3263 H       
  79 H79            1.1475    -5.2722     9.7866 H       
  80 H80            0.8799    -6.6173     7.0574 H       
  81 H81            3.2517    -5.1979     8.3569 H       
  82 H82           -1.1705    -5.8547     9.8566 H       
  83 H83            1.2603    -8.0871     8.9059 H       
  84 H84            4.1961    -5.6652     6.2105 H       
  85 H85            4.5588     3.8335     4.8623 H       
  86 H86            5.2710     5.0226     3.7455 H       
  87 H87            4.1603     5.5604     5.0282 H       
  88 H88            4.5865     6.8819     3.5276 H       
  89 H89            1.6235     7.4583     3.9742 H       
  90 H90            2.7055     6.5654     5.0698 H       
  91 H91            2.9569     8.3058     4.7939 H       
  92 H92            4.1636     7.9569     1.2966 H       
  93 H93            2.5515     8.4421     1.8744 H       
  94 H94            3.6528     9.6594     3.7763 H       
  95 H95            4.7017    10.4914     1.0357 H       
  96 H96            3.4284    13.2442     1.3629 H       
  97 H97            4.7878    14.0116     2.2182 H       
  98 H98            5.0999    12.9374     0.8336 H       
  99 H99            3.6891    11.3052     4.5283 H       
 100 H100           3.9701    13.0566     4.3807 H       
 101 H101           2.6081    12.2983     3.5216 H       
 102 H102           5.9909    11.0959     3.7931 H       
 103 H103           2.3542    10.0499     1.0311 H       
 104 H104           7.9141     8.5441     3.9398 H       
 105 H105           7.8369     9.6508     5.3317 H       
 106 H106           7.3050     7.9613     5.5075 H       
@<TRIPOS>BOND
   1    1    2 1
   2    1    6 1
   3    1   51 1
   4    1   52 1
   5    2    3 1
   6    2   53 1
   7    2   54 1
   8    3    4 1
   9    3   19 1
  10    3   55 1
  11    4    5 1
  12    4   20 1
  13    4   25 1
  14    5    6 1
  15    5    8 1
  16    5   22 1
  17    6    7 1
  18    6   18 1
  19    7   10 1
  20    7   12 1
  21    7   18 1
  22    8    9 1
  23    8   56 1
  24    8   57 1
  25    9   10 2
  26    9   58 1
  27   10   15 1
  28   11   12 1
  29   11   13 1
  30   11   59 1
  31   11   60 1
  32   12   61 1
  33   12   62 1
  34   13   14 1
  35   13   35 1
  36   13   15 1
  37   14   24 1
  38   14   17 1
  39   14   36 1
  40   15   23 1
  41   15   16 1
  42   16   17 1
  43   16   21 1
  44   16   63 1
  45   17   37 2
  46   18   64 1
  47   18   65 1
  48   19   26 1
  49   20   66 1
  50   20   67 1
  51   20   68 1
  52   21   69 1
  53   23   70 1
  54   23   71 1
  55   23   72 1
  56   25   73 1
  57   25   74 1
  58   25   75 1
  59   26   27 1
  60   26   31 1
  61   26   76 1
  62   27   28 1
  63   28   29 1
  64   28   77 1
  65   28   78 1
  66   29   30 1
  67   29   32 1
  68   29   79 1
  69   30   31 1
  70   30   33 1
  71   30   80 1
  72   31   34 1
  73   31   81 1
  74   32   82 1
  75   33   83 1
  76   34   84 1
  77   35   85 1
  78   35   86 1
  79   35   87 1
  80   36   38 1
  81   36   39 1
  82   36   88 1
  83   38   89 1
  84   38   90 1
  85   38   91 1
  86   39   40 1
  87   39   92 1
  88   39   93 1
  89   40   41 1
  90   40   47 1
  91   40   94 1
  92   41   42 1
  93   41   46 1
  94   41   95 1
  95   42   43 1
  96   42   44 1
  97   42   45 1
  98   43   96 1
  99   43   97 1
 100   43   98 1
 101   44   99 1
 102   44  100 1
 103   44  101 1
 104   45  102 1
 105   46  103 1
 106   47   48 1
 107   48   49 2
 108   48   50 1
 109   50  104 1
 110   50  105 1
 111   50  106 1

#	End of record

