#	Name: ASD01811147
#	Creating user name:	WinNT
#	Creation time:	15. 06. 2019 19:26

#	Modifying user name:	WinNT
#	Modification time:	15. 06. 2019 19:26

#	Program:	/corina/corina34_cracker 3.40 0067  02.08.2006

@<TRIPOS>MOLECULE
ASD01811147
  60   63    0    0    0
SMALL
NO_CHARGES


@<TRIPOS>ATOM
   1 C1            -0.0168     1.3840     0.0097 C.ar    
   2 C2             0.0021    -0.0041     0.0020 C.ar    
   3 C3            -1.1814    -0.7162     0.0100 C.ar    
   4 C4            -2.3935    -0.0448     0.0256 C.ar    
   5 C5            -2.4139     1.3501     0.0333 C.ar    
   6 C6            -1.2255     2.0621     0.0306 C.ar    
   7 O7            -3.6829    -0.4660     0.0366 O.3     
   8 C8            -4.4954     0.6021     0.0506 C.2     
   9 N9            -3.7560     1.7289     0.0491 N.am    
  10 O10           -5.7106     0.5597     0.0632 O.2     
  11 C11           -4.2686     3.1012     0.0621 C.3     
  12 C12           -5.1363     3.3352    -1.1776 C.3     
  13 C13           -5.7180     4.7498    -1.1276 C.3     
  14 N14           -6.5218     4.9071     0.0913 N.3     
  15 C15           -5.6996     4.7336     1.2956 C.3     
  16 C16           -5.1174     3.3185     1.3179 C.3     
  17 C17           -8.7489     7.6850     1.4017 C.3     
  18 C18           -8.0338     6.3325     1.3872 C.3     
  19 C19           -7.2084     6.2056     0.1051 C.3     
  20 C20           -6.1729     7.3307     0.0518 C.3     
  21 C21           -6.8881     8.6832     0.0663 C.3     
  22 C22           -7.7134     8.8100     1.3483 C.3     
  23 O23           -8.3814    10.0732     1.3618 O.3     
  24 C24           -8.1338     6.3062    -1.1091 C.3     
  25 C25           -8.6008    10.6007     2.6717 C.3     
  26 C26           -9.3185    11.9477     2.5654 C.3     
  27 O27            1.1518     2.0791     0.0022 O.3     
  28 C28            2.3601     1.3164    -0.0134 C.3     
  29 H29            0.9457    -0.5292    -0.0105 H       
  30 H30           -1.1621    -1.7960     0.0036 H       
  31 H31           -1.2408     3.1419     0.0369 H       
  32 H32           -3.4337     3.8020     0.0599 H       
  33 H33           -4.5270     3.2238    -2.0745 H       
  34 H34           -5.9483     2.6082    -1.1959 H       
  35 H35           -4.9057     5.4766    -1.1232 H       
  36 H36           -6.3478     4.9146    -2.0018 H       
  37 H37           -4.8874     5.4605     1.2886 H       
  38 H38           -6.3162     4.8867     2.1813 H       
  39 H39           -5.9291     2.5913     1.3388 H       
  40 H40           -4.4946     3.1952     2.2039 H       
  41 H41           -9.4082     7.7566     0.5366 H       
  42 H42           -9.3369     7.7753     2.3150 H       
  43 H43           -7.3745     6.2608     2.2523 H       
  44 H44           -8.7715     5.5310     1.4252 H       
  45 H45           -5.5137     7.2590     0.9169 H       
  46 H46           -5.5849     7.2403    -0.8615 H       
  47 H47           -6.1504     9.4847     0.0283 H       
  48 H48           -7.5473     8.7549    -0.7988 H       
  49 H49           -7.0542     8.7383     2.2134 H       
  50 H50           -8.6433     7.2698    -1.0988 H       
  51 H51           -7.5458     6.2159    -2.0225 H       
  52 H52           -8.8715     5.5047    -1.0712 H       
  53 H53           -9.2147     9.9061     3.2449 H       
  54 H54           -7.6428    10.7381     3.1732 H       
  55 H55           -8.7046    12.6423     1.9921 H       
  56 H56          -10.2765    11.8104     2.0638 H       
  57 H57           -9.4859    12.3501     3.5645 H       
  58 H58            2.4016     0.6832     0.8728 H       
  59 H59            2.3847     0.6928    -0.9070 H       
  60 H60            3.2159     1.9916    -0.0180 H       
@<TRIPOS>BOND
   1    1    2 ar
   2    1   27 1
   3    1    6 ar
   4    2    3 ar
   5    2   29 1
   6    3    4 ar
   7    3   30 1
   8    4    5 ar
   9    4    7 1
  10    5    6 ar
  11    5    9 1
  12    6   31 1
  13    7    8 1
  14    8    9 am
  15    8   10 2
  16    9   11 1
  17   11   12 1
  18   11   16 1
  19   11   32 1
  20   12   13 1
  21   12   33 1
  22   12   34 1
  23   13   14 1
  24   13   35 1
  25   13   36 1
  26   14   15 1
  27   14   19 1
  28   15   16 1
  29   15   37 1
  30   15   38 1
  31   16   39 1
  32   16   40 1
  33   17   18 1
  34   17   22 1
  35   17   41 1
  36   17   42 1
  37   18   19 1
  38   18   43 1
  39   18   44 1
  40   19   20 1
  41   19   24 1
  42   20   21 1
  43   20   45 1
  44   20   46 1
  45   21   22 1
  46   21   47 1
  47   21   48 1
  48   22   23 1
  49   22   49 1
  50   23   25 1
  51   24   50 1
  52   24   51 1
  53   24   52 1
  54   25   26 1
  55   25   53 1
  56   25   54 1
  57   26   55 1
  58   26   56 1
  59   26   57 1
  60   27   28 1
  61   28   58 1
  62   28   59 1
  63   28   60 1

#	End of record

