#	Name: ASD01920021
#	Creating user name:	WinNT
#	Creation time:	15. 06. 2019 20:11

#	Modifying user name:	WinNT
#	Modification time:	15. 06. 2019 20:11

#	Program:	/corina/corina34_cracker 3.40 0067  02.08.2006

@<TRIPOS>MOLECULE
ASD01920021
  40   44    0    0    0
SMALL
NO_CHARGES


@<TRIPOS>ATOM
   1 N1            -0.0175     1.3627     0.1054 N.am    
   2 C2             0.0023    -0.0036    -0.0000 C.2     
   3 C3            -1.1522    -0.7276    -0.0880 C.2     
   4 C4            -2.3851    -0.0665    -0.0707 C.2     
   5 C5            -2.3957     1.3364     0.0377 C.2     
   6 C6            -1.1847     2.0417     0.1310 C.2     
   7 O7            -3.6723    -0.4338    -0.1343 O.3     
   8 N8            -4.4362     0.5028    -0.0825 N.2     
   9 C9            -3.8259     1.6592     0.0238 C.2     
  10 C10           -4.4482     3.0029     0.1110 C.ar    
  11 O11           -1.1869     3.2571     0.2252 O.2     
  12 C12            1.2465     2.0975     0.1977 C.3     
  13 C13            1.2998    -0.7079    -0.0193 C.ar    
  14 C14           -5.6185     3.2787    -0.5937 C.ar    
  15 C15           -6.1934     4.5305    -0.5085 C.ar    
  16 C16           -5.6100     5.5106     0.2741 C.ar    
  17 C17           -4.4484     5.2424     0.9757 C.ar    
  18 C18           -3.8680     3.9924     0.9025 C.ar    
  19 C19            1.5167    -1.7989     0.8249 C.ar    
  20 C20            2.7289    -2.4556     0.8051 C.ar    
  21 C21            3.7366    -2.0360    -0.0515 C.ar    
  22 C22            3.5262    -0.9466    -0.8976 C.ar    
  23 C23            2.3117    -0.2882    -0.8864 C.ar    
  24 O24            4.6594    -0.7391    -1.6305 O.3     
  25 O25            5.0004    -2.5077    -0.2562 O.3     
  26 C26            5.4164    -1.9589    -1.5205 C.3     
  27 H27           -1.1137    -1.8037    -0.1707 H       
  28 H28            1.6347     2.2800    -0.8043 H       
  29 H29            1.0775     3.0495     0.7009 H       
  30 H30            1.9679     1.5096     0.7653 H       
  31 H31           -6.0745     2.5145    -1.2057 H       
  32 H32           -7.1003     4.7454    -1.0542 H       
  33 H33           -6.0629     6.4890     0.3373 H       
  34 H34           -3.9972     6.0113     1.5852 H       
  35 H35           -2.9610     3.7841     1.4506 H       
  36 H36            0.7351    -2.1281     1.4936 H       
  37 H37            2.8947    -3.2992     1.4587 H       
  38 H38            2.1476     0.5550    -1.5411 H       
  39 H39            5.1661    -2.6395    -2.3343 H       
  40 H40            6.4855    -1.7466    -1.5127 H       
@<TRIPOS>BOND
   1    1    2 1
   2    1   12 1
   3    1    6 am
   4    2    3 2
   5    2   13 1
   6    3    4 1
   7    3   27 1
   8    4    5 2
   9    4    7 1
  10    5    6 1
  11    5    9 1
  12    6   11 2
  13    7    8 1
  14    8    9 2
  15    9   10 1
  16   10   14 ar
  17   10   18 ar
  18   12   28 1
  19   12   29 1
  20   12   30 1
  21   13   19 ar
  22   13   23 ar
  23   14   15 ar
  24   14   31 1
  25   15   16 ar
  26   15   32 1
  27   16   17 ar
  28   16   33 1
  29   17   18 ar
  30   17   34 1
  31   18   35 1
  32   19   20 ar
  33   19   36 1
  34   20   21 ar
  35   20   37 1
  36   21   22 ar
  37   21   25 1
  38   22   23 ar
  39   22   24 1
  40   23   38 1
  41   24   26 1
  42   25   26 1
  43   26   39 1
  44   26   40 1

#	End of record

