#	Name: ASD03540385
#	Creating user name:	WinNT
#	Creation time:	15. 06. 2019 20:43

#	Modifying user name:	WinNT
#	Modification time:	15. 06. 2019 20:43

#	Program:	/corina/corina34_cracker 3.40 0067  02.08.2006

@<TRIPOS>MOLECULE
ASD03540385
  57   61    0    0    0
SMALL
NO_CHARGES


@<TRIPOS>ATOM
   1 N1            -0.0161     1.3396     0.0094 N.am    
   2 C2             0.0021    -0.0041     0.0020 C.2     
   3 N3             1.1390    -0.7172    -0.0122 N.am    
   4 C4             2.3459    -0.1106    -0.0200 C.2     
   5 C5             2.3857     1.3633    -0.0129 C.ar    
   6 C6             3.5871     2.0607    -0.0197 C.ar    
   7 C7             3.5659     3.4548    -0.0121 C.ar    
   8 C8             2.3437     4.1382     0.0023 C.ar    
   9 C9             1.1622     3.4519     0.0094 C.ar    
  10 C10            1.1637     2.0628     0.0020 C.ar    
  11 C11            4.8337     4.2115    -0.0186 C.2     
  12 O12            5.8952     3.6190    -0.0307 O.2     
  13 N13            4.8141     5.5591    -0.0113 N.am    
  14 C14            6.0721     6.3100    -0.0178 C.3     
  15 O15            4.9688    11.8141     0.2817 O.3     
  16 C16            5.3613    12.0032     1.6541 C.3     
  17 O17            5.2078    10.6956     2.2371 O.3     
  18 C18            5.3772     9.8154     1.2077 C.ar    
  19 C19            5.2302    10.5032     0.0052 C.ar    
  20 C20            5.6494     8.4574     1.1957 C.ar    
  21 C21            5.7753     7.7874    -0.0074 C.ar    
  22 C22            5.6299     8.4699    -1.2004 C.ar    
  23 C23            5.3575     9.8257    -1.1961 C.ar    
  24 O24            3.3721    -0.7626    -0.0320 O.2     
  25 O25           -1.0576    -0.5997     0.0089 O.2     
  26 C26           -1.2992     2.0466     0.0193 C.3     
  27 C27           -1.7391     2.2849     1.4652 C.3     
  28 C28            1.0697    -2.1806    -0.0189 C.3     
  29 C29            1.0327    -2.6752    -1.4420 C.ar    
  30 C30            2.2115    -2.9586    -2.1061 C.ar    
  31 C31            2.1775    -3.4122    -3.4115 C.ar    
  32 C32            0.9648    -3.5829    -4.0526 C.ar    
  33 C33           -0.2140    -3.3004    -3.3881 C.ar    
  34 C34           -0.1803    -2.8509    -2.0813 C.ar    
  35 H35            4.5271     1.5290    -0.0304 H       
  36 H36            2.3349     5.2181     0.0081 H       
  37 H37            0.2260     3.9901     0.0212 H       
  38 H38            3.9672     6.0319    -0.0017 H       
  39 H39            6.6548     6.0502     0.8660 H       
  40 H40            6.6399     6.0598    -0.9139 H       
  41 H41            6.3996    12.3297     1.7139 H       
  42 H42            4.7042    12.7209     2.1450 H       
  43 H43            5.7642     7.9217     2.1264 H       
  44 H44            5.7289     7.9432    -2.1381 H       
  45 H45            5.2437    10.3563    -2.1298 H       
  46 H46           -1.1903     3.0042    -0.4899 H       
  47 H47           -2.0494     1.4453    -0.4943 H       
  48 H48           -2.6937     2.8110     1.4725 H       
  49 H49           -1.8480     1.3273     1.9743 H       
  50 H50           -0.9889     2.8862     1.9788 H       
  51 H51            1.9463    -2.5881     0.4847 H       
  52 H52            0.1684    -2.5041     0.5017 H       
  53 H53            3.1590    -2.8252    -1.6052 H       
  54 H54            3.0985    -3.6329    -3.9306 H       
  55 H55            0.9383    -3.9366    -5.0726 H       
  56 H56           -1.1615    -3.4334    -3.8891 H       
  57 H57           -1.1014    -2.6337    -1.5610 H       
@<TRIPOS>BOND
   1    1    2 am
   2    1   10 1
   3    1   26 1
   4    2    3 am
   5    2   25 2
   6    3    4 am
   7    3   28 1
   8    4    5 1
   9    4   24 2
  10    5    6 ar
  11    5   10 ar
  12    6    7 ar
  13    6   35 1
  14    7    8 ar
  15    7   11 1
  16    8    9 ar
  17    8   36 1
  18    9   10 ar
  19    9   37 1
  20   11   12 2
  21   11   13 am
  22   13   14 1
  23   13   38 1
  24   14   21 1
  25   14   39 1
  26   14   40 1
  27   15   16 1
  28   15   19 1
  29   16   17 1
  30   16   41 1
  31   16   42 1
  32   17   18 1
  33   18   19 ar
  34   18   20 ar
  35   19   23 ar
  36   20   21 ar
  37   20   43 1
  38   21   22 ar
  39   22   23 ar
  40   22   44 1
  41   23   45 1
  42   26   27 1
  43   26   46 1
  44   26   47 1
  45   27   48 1
  46   27   49 1
  47   27   50 1
  48   28   29 1
  49   28   51 1
  50   28   52 1
  51   29   30 ar
  52   29   34 ar
  53   30   31 ar
  54   30   53 1
  55   31   32 ar
  56   31   54 1
  57   32   33 ar
  58   32   55 1
  59   33   34 ar
  60   33   56 1
  61   34   57 1

#	End of record

