#	Name: ASD01912888
#	Creating user name:	WinNT
#	Creation time:	15. 06. 2019 20:00

#	Modifying user name:	WinNT
#	Modification time:	15. 06. 2019 20:00

#	Program:	/corina/corina34_cracker 3.40 0067  02.08.2006

@<TRIPOS>MOLECULE
ASD01912888
  29   31    0    0    0
SMALL
NO_CHARGES


@<TRIPOS>ATOM
   1 C1            -0.0165     1.3681     0.0096 C.2     
   2 N2             0.0021    -0.0041     0.0020 N.pl3   
   3 C3            -1.2031    -0.6916     0.0094 C.2     
   4 C4            -2.3632    -0.0482     0.0231 C.2     
   5 N5            -2.4354     1.3313     0.0307 N.am    
   6 C6            -1.3016     2.0674     0.0309 C.2     
   7 C7             2.0555     0.6105    -0.0143 C.2     
   8 N8             1.2242    -0.4046    -0.0118 N.2     
   9 O9            -1.3488     3.2844     0.0376 O.2     
  10 C10            3.5599     0.5233    -0.0291 C.3     
  11 O11            4.0225     0.5025    -1.3810 O.3     
  12 C12            5.3658     0.4254    -1.5723 C.ar    
  13 C13            5.8841     0.4010    -2.8589 C.ar    
  14 C14            7.2499     0.3227    -3.0507 C.ar    
  15 C15            8.1001     0.2686    -1.9618 C.ar    
  16 C16            7.5860     0.2923    -0.6785 C.ar    
  17 C17            6.2213     0.3768    -0.4813 C.ar    
  18 C18            1.3022     1.7846    -0.0008 C.2     
  19 Cl19           1.8930     3.4169     0.0028 Cl      
  20 H20           -1.1967    -1.7716     0.0035 H       
  21 H21           -3.2791    -0.6204     0.0281 H       
  22 H22           -3.2996     1.7716     0.0404 H       
  23 H23            3.9790     1.3883     0.4850 H       
  24 H24            3.8760    -0.3887     0.4772 H       
  25 H25            5.2203     0.4429    -3.7099 H       
  26 H26            7.6539     0.3033    -4.0522 H       
  27 H27            9.1676     0.2073    -2.1138 H       
  28 H28            8.2522     0.2492     0.1705 H       
  29 H29            5.8202     0.3953     0.5213 H       
@<TRIPOS>BOND
   1    1    2 1
   2    1   18 2
   3    1    6 1
   4    2    3 1
   5    2    8 1
   6    3    4 2
   7    3   20 1
   8    4    5 1
   9    4   21 1
  10    5    6 am
  11    5   22 1
  12    6    9 2
  13    7    8 2
  14    7   10 1
  15    7   18 1
  16   10   11 1
  17   10   23 1
  18   10   24 1
  19   11   12 1
  20   12   13 ar
  21   12   17 ar
  22   13   14 ar
  23   13   25 1
  24   14   15 ar
  25   14   26 1
  26   15   16 ar
  27   15   27 1
  28   16   17 ar
  29   16   28 1
  30   17   29 1
  31   18   19 1

#	End of record

