#	Name: ASD01912541
#	Creating user name:	WinNT
#	Creation time:	15. 06. 2019 19:59

#	Modifying user name:	WinNT
#	Modification time:	15. 06. 2019 19:59

#	Program:	/corina/corina34_cracker 3.40 0067  02.08.2006

@<TRIPOS>MOLECULE
ASD01912541
  32   33    0    0    0
SMALL
NO_CHARGES


@<TRIPOS>ATOM
   1 C1            -0.0169     1.3949     0.0097 C.ar    
   2 C2             0.0021    -0.0041     0.0020 C.ar    
   3 N3             1.1549    -0.6705    -0.0121 N.ar    
   4 C4             2.3113    -0.0459    -0.0198 C.ar    
   5 C5             2.3655     1.3512    -0.0133 C.ar    
   6 C6             1.1675     2.0816     0.0021 C.ar    
   7 C7            -1.2333    -0.7282     0.0099 C.1     
   8 C8            -2.2462    -1.3218     0.0164 C.1     
   9 C9            -3.4816    -2.0459     0.0243 C.ar    
  10 C10           -3.4765    -3.4436     0.0168 C.ar    
  11 C11           -4.6985    -1.3584     0.0455 C.ar    
  12 C12           -5.8842    -2.0626     0.0535 C.ar    
  13 C13           -5.8712    -3.4464     0.0410 C.ar    
  14 C14           -4.6703    -4.1340     0.0249 C.ar    
  15 C15            3.6651     2.0482    -0.0214 C.2     
  16 O16            3.7032     3.2627    -0.0157 O.2     
  17 O17            4.8104     1.3383    -0.0353 O.3     
  18 C18            6.0523     2.0906    -0.0426 C.3     
  19 C19            7.2358     1.1211    -0.0581 C.3     
  20 H20           -0.9563     1.9276     0.0171 H       
  21 H21            3.2279    -0.6170    -0.0309 H       
  22 H22            1.1795     3.1615     0.0071 H       
  23 H23           -2.5401    -3.9816     0.0042 H       
  24 H24           -4.7102    -0.2785     0.0559 H       
  25 H25           -6.8252    -1.5329     0.0698 H       
  26 H26           -6.8030    -3.9925     0.0481 H       
  27 H27           -4.6681    -5.2140     0.0153 H       
  28 H28            6.0888     2.7228    -0.9298 H       
  29 H29            6.1048     2.7138     0.8501 H       
  30 H30            7.1992     0.4889     0.8291 H       
  31 H31            7.1832     0.4978    -0.9508 H       
  32 H32            8.1681     1.6858    -0.0637 H       
@<TRIPOS>BOND
   1    1    2 ar
   2    1    6 ar
   3    1   20 1
   4    2    3 ar
   5    2    7 1
   6    3    4 ar
   7    4    5 ar
   8    4   21 1
   9    5    6 ar
  10    5   15 1
  11    6   22 1
  12    7    8 3
  13    8    9 1
  14    9   10 ar
  15    9   11 ar
  16   10   14 ar
  17   10   23 1
  18   11   12 ar
  19   11   24 1
  20   12   13 ar
  21   12   25 1
  22   13   14 ar
  23   13   26 1
  24   14   27 1
  25   15   16 2
  26   15   17 1
  27   17   18 1
  28   18   19 1
  29   18   28 1
  30   18   29 1
  31   19   30 1
  32   19   31 1
  33   19   32 1

#	End of record

