#	Name: ASD03731507
#	Creating user name:	WinNT
#	Creation time:	15. 06. 2019 20:45

#	Modifying user name:	WinNT
#	Modification time:	15. 06. 2019 20:45

#	Program:	/corina/corina34_cracker 3.40 0067  02.08.2006

@<TRIPOS>MOLECULE
ASD03731507
  69   76    0    0    0
SMALL
NO_CHARGES


@<TRIPOS>ATOM
   1 C1            -0.0187     1.5258     0.0104 C.3     
   2 C2             0.0021    -0.0041     0.0020 C.3     
   3 C3             0.7182    -0.4975    -1.2568 C.3     
   4 C4            -0.0218     0.0093    -2.4963 C.3     
   5 C5            -0.0425     1.5392    -2.4879 C.3     
   6 C6             1.3929     2.0688    -2.4988 C.3     
   7 C7             2.1328     1.5619    -1.2592 C.3     
   8 C8             1.4167     2.0553    -0.0004 C.3     
   9 C9             2.1536     0.0321    -1.2676 C.3     
  10 C10           -0.7587     2.0326    -1.2291 C.3     
  11 C11           -0.7240     2.0118     1.2503 C.2     
  12 O12           -1.1666     1.2132     2.0486 O.2     
  13 N13           -0.8631     3.3339     1.4720 N.am    
  14 C14           -1.5488     3.8063     2.6774 C.3     
  15 C15           -1.5696     5.3362     2.6858 C.3     
  16 C16           -2.2857     5.8296     3.9446 C.3     
  17 O17           -1.8871    10.8314    -1.2046 O.3     
  18 C18           -1.9185    12.1946    -1.6668 C.3     
  19 O19           -2.9635    12.7983    -0.8815 O.3     
  20 C20           -3.0086    12.0815     0.2800 C.ar    
  21 C21           -2.3475    10.8718     0.0804 C.ar    
  22 C22           -3.5686    12.3686     1.5119 C.ar    
  23 C23           -3.4786    11.4548     2.5576 C.ar    
  24 C24           -2.8229    10.2462     2.3436 C.ar    
  25 C25           -2.2581     9.9596     1.1183 C.ar    
  26 O26           -3.9399    11.5466     3.8378 O.3     
  27 C27           -2.9163     9.4736     3.6321 C.3     
  28 C28           -3.9964    10.2293     4.4181 C.3     
  29 N29           -2.3056     7.2944     3.9526 N.am    
  30 C30           -3.2898     8.0366     3.4072 C.2     
  31 C31           -1.6112     9.4345     4.3703 C.ar    
  32 C32           -0.7656    10.4048     4.8598 C.ar    
  33 C33            0.3978    10.0436     5.5157 C.ar    
  34 C34            0.7095     8.7059     5.6777 C.ar    
  35 C35           -0.1337     7.7303     5.1883 C.ar    
  36 C36           -1.3072     8.0847     4.5272 C.ar    
  37 O37           -4.2825     7.6246     2.8453 O.2     
  38 H38            0.5293    -0.3651     0.8851 H       
  39 H39           -1.0205    -0.3814     0.0098 H       
  40 H40            0.7330    -1.5874    -1.2628 H       
  41 H41            0.4884    -0.3422    -3.3931 H       
  42 H42           -1.0444    -0.3679    -2.4886 H       
  43 H43           -0.5697     1.9003    -3.3710 H       
  44 H44            1.9030     1.7172    -3.3956 H       
  45 H45            1.3781     3.1587    -2.4928 H       
  46 H46            3.1554     1.9392    -1.2670 H       
  47 H47            1.4019     3.1452     0.0056 H       
  48 H48            1.9439     1.6943     0.8826 H       
  49 H49            2.6808    -0.3290    -0.3846 H       
  50 H50            2.6638    -0.3194    -2.1644 H       
  51 H51           -1.7813     1.6553    -1.2214 H       
  52 H52           -0.7734     3.1225    -1.2231 H       
  53 H53           -0.5092     3.9726     0.8335 H       
  54 H54           -2.5714     3.4291     2.6851 H       
  55 H55           -1.0216     3.4453     3.5604 H       
  56 H56           -0.5470     5.7135     2.6780 H       
  57 H57           -2.0967     5.6972     1.8027 H       
  58 H58           -3.3083     5.4523     3.9523 H       
  59 H59           -1.7585     5.4685     4.8276 H       
  60 H60           -0.9642    12.6856    -1.4765 H       
  61 H61           -2.1656    12.2337    -2.7277 H       
  62 H62           -4.0792    13.3082     1.6632 H       
  63 H63           -1.7452     9.0211     0.9679 H       
  64 H64           -3.7505    10.2629     5.4795 H       
  65 H65           -4.9763     9.7786     4.2608 H       
  66 H66           -1.0110    11.4488     4.7320 H       
  67 H67            1.0607    10.8043     5.9005 H       
  68 H68            1.6178     8.4239     6.1895 H       
  69 H69            0.1169     6.6878     5.3182 H       
@<TRIPOS>BOND
   1    1    2 1
   2    1    8 1
   3    1   10 1
   4    1   11 1
   5    2    3 1
   6    2   38 1
   7    2   39 1
   8    3    4 1
   9    3    9 1
  10    3   40 1
  11    4    5 1
  12    4   41 1
  13    4   42 1
  14    5    6 1
  15    5   10 1
  16    5   43 1
  17    6    7 1
  18    6   44 1
  19    6   45 1
  20    7    8 1
  21    7    9 1
  22    7   46 1
  23    8   47 1
  24    8   48 1
  25    9   49 1
  26    9   50 1
  27   10   51 1
  28   10   52 1
  29   11   12 2
  30   11   13 am
  31   13   14 1
  32   13   53 1
  33   14   15 1
  34   14   54 1
  35   14   55 1
  36   15   16 1
  37   15   56 1
  38   15   57 1
  39   16   29 1
  40   16   58 1
  41   16   59 1
  42   17   18 1
  43   17   21 1
  44   18   19 1
  45   18   60 1
  46   18   61 1
  47   19   20 1
  48   20   21 ar
  49   20   22 ar
  50   21   25 ar
  51   22   23 ar
  52   22   62 1
  53   23   24 ar
  54   23   26 1
  55   24   25 ar
  56   24   27 1
  57   25   63 1
  58   26   28 1
  59   27   28 1
  60   27   30 1
  61   27   31 1
  62   28   64 1
  63   28   65 1
  64   29   30 am
  65   29   36 1
  66   30   37 2
  67   31   32 ar
  68   31   36 ar
  69   32   33 ar
  70   32   66 1
  71   33   34 ar
  72   33   67 1
  73   34   35 ar
  74   34   68 1
  75   35   36 ar
  76   35   69 1

#	End of record

