#	Name: ASD04660004
#	Creating user name:	WinNT
#	Creation time:	15. 06. 2019 20:52

#	Modifying user name:	WinNT
#	Modification time:	15. 06. 2019 20:52

#	Program:	/corina/corina34_cracker 3.40 0067  02.08.2006

@<TRIPOS>MOLECULE
ASD04660004
  49   53    0    0    0
SMALL
NO_CHARGES


@<TRIPOS>ATOM
   1 C1            -0.0407     1.2513    -0.0628 C.2     
   2 N2            -0.0149    -0.0425     0.0008 N.2     
   3 N3             1.2380    -0.6151    -0.0127 N.2     
   4 C4             2.2325     0.2148    -0.0875 C.2     
   5 S5             1.6089     1.8600    -0.1485 S.3     
   6 C6            -2.4039     1.4524    -0.0040 C.2     
   7 N7            -1.1904     2.0353    -0.0686 N.am    
   8 O8            -2.4941     0.2402     0.0593 O.2     
   9 C9            -3.6146     2.2779    -0.0101 C.2     
  10 C10           -4.8960     1.8065     0.0509 C.2     
  11 C11           -5.8432     2.8026     0.0286 C.2     
  12 C12           -5.3569     4.0469    -0.0480 C.2     
  13 S13           -3.6513     4.0341    -0.0894 S.3     
  14 C14           14.0498    -4.8388     0.2335 C.ar    
  15 C15           13.7692    -3.7460     1.0746 C.ar    
  16 C16           14.7790    -3.2249     1.8967 C.ar    
  17 C17           16.0154    -3.8040     1.9022 C.ar    
  18 C18           16.2849    -4.8999     1.0937 C.ar    
  19 C19           15.3129    -5.4156     0.2619 C.ar    
  20 O20           13.1006    -5.3148    -0.6068 O.3     
  21 C21           11.8167    -5.1471    -0.2181 C.2     
  22 C22           11.4534    -3.8768     0.4365 C.2     
  23 C23           12.4633    -3.1921     1.1012 C.2     
  24 C24            5.8352    -3.0557     1.0912 C.2     
  25 C25            5.2886    -2.5892    -0.0496 C.2     
  26 O26            5.9735    -2.6029    -1.1988 O.3     
  27 C27            7.2248    -3.0756    -1.2756 C.2     
  28 C28            7.8500    -3.5631    -0.1809 C.2     
  29 C29            7.1570    -3.5669     1.0614 C.2     
  30 S30            3.9362    -0.2334    -0.1218 S.3     
  31 C31            3.8837    -2.0443    -0.0300 C.3     
  32 O32            9.1205    -4.0425    -0.2658 O.3     
  33 C33           10.0786    -3.3557     0.3873 C.2     
  34 O34            9.8067    -2.3054     0.9358 O.2     
  35 O35           10.9866    -6.0173    -0.4030 O.2     
  36 O36            7.6863    -3.9983     2.0743 O.2     
  37 H37           -1.1185     3.0013    -0.1191 H       
  38 H38           -5.1401     0.7562     0.1106 H       
  39 H39           -6.9025     2.5959     0.0694 H       
  40 H40           -5.9631     4.9403    -0.0751 H       
  41 H41           14.5794    -2.3682     2.5232 H       
  42 H42           16.7903    -3.4060     2.5405 H       
  43 H43           17.2650    -5.3529     1.1162 H       
  44 H44           15.5335    -6.2664    -0.3657 H       
  45 H45           12.2606    -2.2677     1.6216 H       
  46 H46            5.2758    -3.0364     2.0148 H       
  47 H47            7.7404    -3.0673    -2.2245 H       
  48 H48            3.3303    -2.4354    -0.8838 H       
  49 H49            3.3893    -2.3471     0.8930 H       
@<TRIPOS>BOND
   1    1    2 2
   2    1    5 1
   3    1    7 1
   4    2    3 1
   5    3    4 2
   6    4    5 1
   7    4   30 1
   8    6    7 am
   9    6    8 2
  10    6    9 1
  11    7   37 1
  12    9   10 2
  13    9   13 1
  14   10   11 1
  15   10   38 1
  16   11   12 2
  17   11   39 1
  18   12   13 1
  19   12   40 1
  20   14   15 ar
  21   14   20 1
  22   14   19 ar
  23   15   16 ar
  24   15   23 1
  25   16   17 ar
  26   16   41 1
  27   17   18 ar
  28   17   42 1
  29   18   19 ar
  30   18   43 1
  31   19   44 1
  32   20   21 1
  33   21   22 1
  34   21   35 2
  35   22   23 2
  36   22   33 1
  37   23   45 1
  38   24   25 2
  39   24   29 1
  40   24   46 1
  41   25   26 1
  42   25   31 1
  43   26   27 1
  44   27   28 2
  45   27   47 1
  46   28   29 1
  47   28   32 1
  48   29   36 2
  49   30   31 1
  50   31   48 1
  51   31   49 1
  52   32   33 1
  53   33   34 2

#	End of record

