#	Name: ASD01140242
#	Creating user name:	WinNT
#	Creation time:	15. 06. 2019 19:00

#	Modifying user name:	WinNT
#	Modification time:	15. 06. 2019 19:00

#	Program:	/corina/corina34_cracker 3.40 0067  02.08.2006

@<TRIPOS>MOLECULE
ASD01140242
  85   90    0    0    0
SMALL
NO_CHARGES


@<TRIPOS>ATOM
   1 C1             1.1322     1.8375    -0.3487 C.ar    
   2 C2             0.8724     0.4639    -0.3293 C.ar    
   3 C3             1.9264    -0.4350    -0.2288 C.ar    
   4 C4             3.2466     0.0262    -0.1463 C.ar    
   5 C5             3.4962     1.3981    -0.1676 C.ar    
   6 C6             4.3132    -0.9821    -0.0372 C.2     
   7 N7             5.3462    -0.8815     0.7215 N.2     
   8 C8             5.5691     0.2878     1.5710 C.3     
   9 C9             5.7457     1.4984     0.6955 C.2     
  10 N10            4.7694     1.9396    -0.0941 N.am    
  11 C11           -0.4749    -0.0142    -0.4122 C.1     
  12 C12            5.0647     3.0883    -0.9541 C.3     
  13 O13            6.8056     2.0877     0.7095 O.2     
  14 O14            4.9454    -3.5680    10.1376 O.2     
  15 C15            5.0137    -2.3766    10.3539 C.2     
  16 N16            6.1525    -1.7362    10.1007 N.am    
  17 C17            7.2852    -2.5360     9.6280 C.3     
  18 C18            3.8069    -1.6601    10.8958 C.3     
  19 N19            4.1263    -1.1320    12.2216 N.2     
  20 C20            5.0337    -0.2379    12.3955 C.2     
  21 C21            5.8422     0.3619    11.3220 C.ar    
  22 C22            6.3517    -0.3729    10.2481 C.ar    
  23 C23            6.0980     1.7372    11.3961 C.ar    
  24 C24            6.8519     2.3663    10.4137 C.ar    
  25 C25            7.3582     1.6209     9.3448 C.ar    
  26 C26            7.1091     3.7726    10.4952 C.1     
  27 C27           -1.5794    -0.4061    -0.4802 C.1     
  28 C28            7.3200     4.9256    10.5621 C.1     
  29 C29            5.2839     0.2237    13.7808 C.ar    
  30 C30            4.2883     0.1018    14.7500 C.ar    
  31 C31            4.5275     0.5331    16.0387 C.ar    
  32 C32            5.7516     1.0859    16.3701 C.ar    
  33 C33            6.7429     1.2098    15.4131 C.ar    
  34 C34            6.5179     0.7765    14.1225 C.ar    
  35 C35            4.1867    -2.2051    -0.8635 C.ar    
  36 C36            3.4169    -2.1879    -2.0264 C.ar    
  37 C37            3.3033    -3.3301    -2.7922 C.ar    
  38 C38            3.9508    -4.4909    -2.4083 C.ar    
  39 C39            4.7155    -4.5143    -1.2556 C.ar    
  40 C40            4.8417    -3.3768    -0.4849 C.ar    
  41 C41            3.3187     1.3719     4.4178 C.3     
  42 C42            2.4263     2.2925    -0.2689 C.ar    
  43 C43            7.1078     0.2743     9.2662 C.ar    
  44 O44            3.0746     0.1563     5.1283 O.3     
  45 C45            3.9623    -0.0635     6.2263 C.3     
  46 O46            3.5977     0.7910     7.3121 O.3     
  47 C47            2.4255     0.3716     8.0135 C.3     
  48 C48            4.3809     0.4883     2.4760 C.2     
  49 O49            4.5047     1.2211     3.5938 O.3     
  50 O50            3.3168    -0.0105     2.1954 O.2     
  51 C51            3.4383    -0.5250     9.9756 C.2     
  52 O52            2.7456    -0.7696     8.8522 O.3     
  53 O53            3.7664     0.6053    10.2490 O.2     
  54 H54            0.3164     2.5405    -0.4308 H       
  55 H55            1.7268    -1.4963    -0.2138 H       
  56 H56            6.4664     0.1373     2.1713 H       
  57 H57            6.0945     3.4073    -0.7934 H       
  58 H58            4.9309     2.8046    -1.9980 H       
  59 H59            4.3883     3.9077    -0.7107 H       
  60 H60            6.9876    -3.5823     9.5592 H       
  61 H61            7.5957    -2.1812     8.6453 H       
  62 H62            8.1152    -2.4397    10.3280 H       
  63 H63            2.9721    -2.3568    10.9716 H       
  64 H64            5.7063     2.3121    12.2221 H       
  65 H65            7.9440     2.1056     8.5778 H       
  66 H66           -2.5673    -0.7567    -0.5410 H       
  67 H67            7.5086     5.9568    10.6218 H       
  68 H68            3.3320    -0.3289    14.4922 H       
  69 H69            3.7574     0.4392    16.7900 H       
  70 H70            5.9340     1.4223    17.3801 H       
  71 H71            7.6964     1.6425    15.6777 H       
  72 H72            7.2925     0.8737    13.3763 H       
  73 H73            2.9104    -1.2825    -2.3267 H       
  74 H74            2.7074    -3.3180    -3.6928 H       
  75 H75            3.8586    -5.3825    -3.0107 H       
  76 H76            5.2183    -5.4235    -0.9608 H       
  77 H77            5.4390    -3.3962     0.4148 H       
  78 H78            2.4622     1.6003     3.7835 H       
  79 H79            3.4711     2.1839     5.1288 H       
  80 H80            2.6195     3.3549    -0.2843 H       
  81 H81            7.5000    -0.2933     8.4353 H       
  82 H82            3.8958    -1.1039     6.5446 H       
  83 H83            4.9840     0.1573     5.9173 H       
  84 H84            2.0624     1.1895     8.6359 H       
  85 H85            1.6541     0.0906     7.2965 H       
@<TRIPOS>BOND
   1    1    2 ar
   2    1   42 ar
   3    1   54 1
   4    2    3 ar
   5    2   11 1
   6    3    4 ar
   7    3   55 1
   8    4    5 ar
   9    4    6 1
  10    5   10 1
  11    5   42 ar
  12    6    7 2
  13    6   35 1
  14    7    8 1
  15    8    9 1
  16    8   48 1
  17    8   56 1
  18    9   10 am
  19    9   13 2
  20   10   12 1
  21   11   27 3
  22   12   57 1
  23   12   58 1
  24   12   59 1
  25   14   15 2
  26   15   16 am
  27   15   18 1
  28   16   17 1
  29   16   22 1
  30   17   60 1
  31   17   61 1
  32   17   62 1
  33   18   19 1
  34   18   51 1
  35   18   63 1
  36   19   20 2
  37   20   21 1
  38   20   29 1
  39   21   22 ar
  40   21   23 ar
  41   22   43 ar
  42   23   24 ar
  43   23   64 1
  44   24   25 ar
  45   24   26 1
  46   25   43 ar
  47   25   65 1
  48   26   28 3
  49   27   66 1
  50   28   67 1
  51   29   30 ar
  52   29   34 ar
  53   30   31 ar
  54   30   68 1
  55   31   32 ar
  56   31   69 1
  57   32   33 ar
  58   32   70 1
  59   33   34 ar
  60   33   71 1
  61   34   72 1
  62   35   36 ar
  63   35   40 ar
  64   36   37 ar
  65   36   73 1
  66   37   38 ar
  67   37   74 1
  68   38   39 ar
  69   38   75 1
  70   39   40 ar
  71   39   76 1
  72   40   77 1
  73   41   44 1
  74   41   49 1
  75   41   78 1
  76   41   79 1
  77   42   80 1
  78   43   81 1
  79   44   45 1
  80   45   46 1
  81   45   82 1
  82   45   83 1
  83   46   47 1
  84   47   52 1
  85   47   84 1
  86   47   85 1
  87   48   49 1
  88   48   50 2
  89   51   52 1
  90   51   53 2

#	End of record

