#	Name: ASD04010007
#	Creating user name:	WinNT
#	Creation time:	15. 06. 2019 20:48

#	Modifying user name:	WinNT
#	Modification time:	15. 06. 2019 20:48

#	Program:	/corina/corina34_cracker 3.40 0067  02.08.2006

@<TRIPOS>MOLECULE
ASD04010007
  21   22    0    0    0
SMALL
NO_CHARGES


@<TRIPOS>ATOM
   1 F1             0.0021    -0.0041     0.0020 F       
   2 C2            -0.0162     1.3468     0.0094 C.ar    
   3 C3             1.1754     2.0535     0.0019 C.ar    
   4 C4             1.1664     3.4381     0.0094 C.ar    
   5 F5             2.3324     4.1205     0.0019 F       
   6 C6            -0.0376     4.1249     0.0241 C.ar    
   7 C7            -1.2431     3.4143     0.0318 C.ar    
   8 C8            -1.2235     2.0191     0.0188 C.ar    
   9 C9            -2.5315     4.1384     0.0475 C.2     
  10 N10           -3.4564     4.1203     1.0621 N.pl3   
  11 C11           -4.5099     4.9109     0.7046 C.2     
  12 C12           -4.2621     5.4266    -0.5202 C.2     
  13 C13           -3.0093     4.9471    -0.9402 C.2     
  14 Br14          -2.1512     5.3409    -2.5786 Br      
  15 Br15          -5.3937     6.5902    -1.4905 Br      
  16 Br16          -6.0551     5.2309     1.7466 Br      
  17 O17           -0.0472     5.4846     0.0315 O.3     
  18 H18            2.1156     1.5221    -0.0096 H       
  19 H19           -2.1507     1.4653     0.0243 H       
  20 H20           -3.3748     3.6278     1.8938 H       
  21 H21           -0.0581     5.8827    -0.8497 H       
@<TRIPOS>BOND
   1    1    2 1
   2    2    3 ar
   3    2    8 ar
   4    3    4 ar
   5    3   18 1
   6    4    5 1
   7    4    6 ar
   8    6    7 ar
   9    6   17 1
  10    7    8 ar
  11    7    9 1
  12    8   19 1
  13    9   10 1
  14    9   13 2
  15   10   11 1
  16   10   20 1
  17   11   12 2
  18   11   16 1
  19   12   13 1
  20   12   15 1
  21   13   14 1
  22   17   21 1

#	End of record

