#	Name: ASD01816336
#	Creating user name:	WinNT
#	Creation time:	15. 06. 2019 19:35

#	Modifying user name:	WinNT
#	Modification time:	15. 06. 2019 19:35

#	Program:	/corina/corina34_cracker 3.40 0067  02.08.2006

@<TRIPOS>MOLECULE
ASD01816336
  51   56    0    0    0
SMALL
NO_CHARGES


@<TRIPOS>ATOM
   1 C1            -0.0167     1.3813     0.0096 C.ar    
   2 C2             0.0021    -0.0041     0.0020 C.ar    
   3 C3             1.1983    -0.6909    -0.0127 C.ar    
   4 C4             2.4015     0.0060    -0.0200 C.ar    
   5 C5             2.3790     1.4106    -0.0127 C.ar    
   6 C6             1.1663     2.0917     0.0022 C.ar    
   7 N7             3.6052    -0.6771    -0.0338 N.pl3   
   8 C8             4.7970    -0.0585    -0.0414 C.2     
   9 C9             4.8999     1.3104    -0.0354 C.2     
  10 C10            3.6670     2.1302    -0.0207 C.2     
  11 C11            5.9971     2.2731    -0.0396 C.2     
  12 N12            5.4245     3.4962    -0.0284 N.am    
  13 N13            4.0322     3.3799    -0.0172 N.2     
  14 O14            7.1911     2.0232    -0.0507 O.2     
  15 C15            3.5778    -2.1418    -0.0399 C.3     
  16 C16            3.5557    -2.6379    -1.4627 C.ar    
  17 C17            4.7436    -2.8874    -2.1251 C.ar    
  18 C18            4.7265    -3.3417    -3.4293 C.ar    
  19 C19            3.5150    -3.5482    -4.0751 C.ar    
  20 C20            2.3239    -3.2973    -3.4073 C.ar    
  21 C21            2.3474    -2.8481    -2.1014 C.ar    
  22 N22            3.4944    -4.0088    -5.3990 N.pl3   
  23 C23            2.3896    -4.2503    -6.1405 C.2     
  24 C24            2.7965    -4.6801    -7.3574 C.2     
  25 C25            4.1955    -4.7024    -7.3609 C.2     
  26 N26            4.6146    -4.2946    -6.1900 N.2     
  27 C27            6.1211     4.6994    -0.0283 C.ar    
  28 N28            7.4440     4.6935    -0.0398 N.ar    
  29 C29            8.1439     5.8113    -0.0402 C.ar    
  30 C30            7.5215     7.0466    -0.0284 C.ar    
  31 C31            6.1390     7.1128    -0.0161 C.ar    
  32 C32            5.4162     5.9145    -0.0217 C.ar    
  33 C33            3.9844     5.9266    -0.0095 C.1     
  34 N34            2.8484     5.9362     0.0002 N.1     
  35 H35           -0.9602     1.9068     0.0170 H       
  36 H36           -0.9289    -0.5515     0.0080 H       
  37 H37            1.2003    -1.7709    -0.0181 H       
  38 H38            1.1506     3.1715     0.0081 H       
  39 H39            5.6983    -0.6535    -0.0521 H       
  40 H40            4.4655    -2.5240     0.4643 H       
  41 H41            2.6859    -2.4907     0.4805 H       
  42 H42            5.6857    -2.7265    -1.6222 H       
  43 H43            5.6546    -3.5357    -3.9463 H       
  44 H44            1.3799    -3.4567    -3.9073 H       
  45 H45            1.4212    -2.6527    -1.5814 H       
  46 H46            1.3664    -4.1235    -5.8190 H       
  47 H47            2.1546    -4.9570    -8.1807 H       
  48 H48            4.8217    -5.0004    -8.1888 H       
  49 H49            9.2227     5.7612    -0.0494 H       
  50 H50            8.1097     7.9524    -0.0285 H       
  51 H51            5.6307     8.0656    -0.0068 H       
@<TRIPOS>BOND
   1    1    2 ar
   2    1    6 ar
   3    1   35 1
   4    2    3 ar
   5    2   36 1
   6    3    4 ar
   7    3   37 1
   8    4    5 ar
   9    4    7 1
  10    5    6 ar
  11    5   10 1
  12    6   38 1
  13    7    8 1
  14    7   15 1
  15    8    9 2
  16    8   39 1
  17    9   10 1
  18    9   11 1
  19   10   13 2
  20   11   12 am
  21   11   14 2
  22   12   13 1
  23   12   27 1
  24   15   16 1
  25   15   40 1
  26   15   41 1
  27   16   17 ar
  28   16   21 ar
  29   17   18 ar
  30   17   42 1
  31   18   19 ar
  32   18   43 1
  33   19   20 ar
  34   19   22 1
  35   20   21 ar
  36   20   44 1
  37   21   45 1
  38   22   23 1
  39   22   26 1
  40   23   24 2
  41   23   46 1
  42   24   25 1
  43   24   47 1
  44   25   26 2
  45   25   48 1
  46   27   28 ar
  47   27   32 ar
  48   28   29 ar
  49   29   30 ar
  50   29   49 1
  51   30   31 ar
  52   30   50 1
  53   31   32 ar
  54   31   51 1
  55   32   33 1
  56   33   34 3

#	End of record

