#	Name: ASD01720163
#	Creating user name:	WinNT
#	Creation time:	15. 06. 2019 19:23

#	Modifying user name:	WinNT
#	Modification time:	15. 06. 2019 19:23

#	Program:	/corina/corina34_cracker 3.40 0067  02.08.2006

@<TRIPOS>MOLECULE
ASD01720163
  46   48    0    0    0
SMALL
NO_CHARGES


@<TRIPOS>ATOM
   1 C1            -0.6143     1.7899     0.7781 C.ar    
   2 N2            -0.7378     0.4953     1.0305 N.ar    
   3 C3             0.3076    -0.3151     0.9577 C.ar    
   4 N4             1.5116     0.1314     0.6323 N.ar    
   5 C5             1.7072     1.4181     0.3664 C.ar    
   6 C6             0.6246     2.2962     0.4346 C.ar    
   7 N7             2.9721     1.8833     0.0257 N.am    
   8 C8             3.3613     3.2971    -0.0890 C.3     
   9 C9             4.8494     3.2371    -0.4845 C.3     
  10 O10            5.1395     1.8108    -0.5505 O.3     
  11 C11            4.0372     1.1169    -0.2462 C.2     
  12 N12            0.1377    -1.6616     1.2288 N.pl3   
  13 C13           -1.1858    -2.1746     1.5909 C.3     
  14 C14           -1.2697    -3.6384     1.2428 C.ar    
  15 C15           -1.4091    -1.9941     3.0937 C.3     
  16 C16           -2.4309    -4.1540     0.6981 C.ar    
  17 C17           -2.5078    -5.4968     0.3789 C.ar    
  18 C18           -1.4233    -6.3239     0.6040 C.ar    
  19 C19           -0.2618    -5.8082     1.1479 C.ar    
  20 C20           -0.1834    -4.4645     1.4630 C.ar    
  21 C21            3.1903     4.0122     1.2528 C.3     
  22 C22            4.0509     3.3212     2.3123 C.3     
  23 C23            3.6281     5.4715     1.1125 C.3     
  24 O24            4.0037    -0.0974    -0.2220 O.2     
  25 H25           -1.4734     2.4417     0.8358 H       
  26 H26            0.7523     3.3476     0.2235 H       
  27 H27            2.7785     3.7930    -0.8652 H       
  28 H28            5.0054     3.7042    -1.4569 H       
  29 H29            5.4663     3.7178     0.2748 H       
  30 H30            0.8951    -2.2656     1.1790 H       
  31 H31           -1.9509    -1.6261     1.0414 H       
  32 H32           -1.3485    -0.9353     3.3454 H       
  33 H33           -2.3939    -2.3758     3.3631 H       
  34 H34           -0.6441    -2.5426     3.6432 H       
  35 H35           -3.2781    -3.5078     0.5223 H       
  36 H36           -3.4152    -5.8997    -0.0460 H       
  37 H37           -1.4836    -7.3732     0.3553 H       
  38 H38            0.5854    -6.4545     1.3240 H       
  39 H39            0.7241    -4.0616     1.8880 H       
  40 H40            2.1433     3.9743     1.5538 H       
  41 H41            5.1043     3.4395     2.0585 H       
  42 H42            3.8592     3.7713     3.2863 H       
  43 H43            3.8025     2.2604     2.3470 H       
  44 H44            4.6974     5.5117     0.9047 H       
  45 H45            3.0810     5.9378     0.2931 H       
  46 H46            3.4178     6.0047     2.0396 H       
@<TRIPOS>BOND
   1    1    2 ar
   2    1    6 ar
   3    1   25 1
   4    2    3 ar
   5    3    4 ar
   6    3   12 1
   7    4    5 ar
   8    5    6 ar
   9    5    7 1
  10    6   26 1
  11    7    8 1
  12    7   11 am
  13    8    9 1
  14    8   21 1
  15    8   27 1
  16    9   10 1
  17    9   28 1
  18    9   29 1
  19   10   11 1
  20   11   24 2
  21   12   13 1
  22   12   30 1
  23   13   14 1
  24   13   15 1
  25   13   31 1
  26   14   16 ar
  27   14   20 ar
  28   15   32 1
  29   15   33 1
  30   15   34 1
  31   16   17 ar
  32   16   35 1
  33   17   18 ar
  34   17   36 1
  35   18   19 ar
  36   18   37 1
  37   19   20 ar
  38   19   38 1
  39   20   39 1
  40   21   22 1
  41   21   23 1
  42   21   40 1
  43   22   41 1
  44   22   42 1
  45   22   43 1
  46   23   44 1
  47   23   45 1
  48   23   46 1

#	End of record

