#	Name: ASD01812153
#	Creating user name:	WinNT
#	Creation time:	15. 06. 2019 19:28

#	Modifying user name:	WinNT
#	Modification time:	15. 06. 2019 19:28

#	Program:	/corina/corina34_cracker 3.40 0067  02.08.2006

@<TRIPOS>MOLECULE
ASD01812153
  55   59    0    0    0
SMALL
NO_CHARGES


@<TRIPOS>ATOM
   1 C1            -0.0333     1.3620     0.2277 C.ar    
   2 C2            -0.0044    -0.0309     0.2222 C.ar    
   3 C3             1.1743    -0.7077     0.1368 C.ar    
   4 C4             2.3815     0.0041     0.0523 C.ar    
   5 C5             2.3528     1.4231     0.0573 C.ar    
   6 C6             1.1162     2.0865     0.1473 C.ar    
   7 C7             3.6164    -0.6640    -0.0376 C.ar    
   8 C8             4.7711     0.0434    -0.1189 C.ar    
   9 C9             4.7592     1.4521    -0.1147 C.ar    
  10 C10            3.5554     2.1332    -0.0274 C.ar    
  11 C11            3.6565    -2.1704    -0.0431 C.3     
  12 C12            5.8491     2.4449    -0.1902 C.2     
  13 N13            5.3486     3.6916    -0.1515 N.am    
  14 C14            3.8875     3.6040    -0.0475 C.3     
  15 O15            7.0310     2.1734    -0.2750 O.2     
  16 C16            6.1301     4.9296    -0.2044 C.3     
  17 C17            6.9204     4.9782    -1.5135 C.3     
  18 C18            7.7366     6.2712    -1.5688 C.3     
  19 C19            8.7061     6.3133    -0.3859 C.3     
  20 C20            7.9157     6.2647     0.9232 C.3     
  21 C21            7.0995     4.9717     0.9785 C.3     
  22 O22            6.0150     4.9389    -2.6183 O.3     
  23 N23            3.4387    -2.6710     1.3207 N.3     
  24 C24            3.1061    -4.1074     1.3095 C.3     
  25 C25            4.1420    -4.8235     2.2014 C.3     
  26 C26            4.6581    -3.6853     3.1206 C.3     
  27 C27            4.6421    -2.4730     2.1564 C.3     
  28 F28            5.9563    -3.9524     3.5683 F       
  29 F29            3.5322    -5.8310     2.9566 F       
  30 H30           -0.9818     1.8743     0.2921 H       
  31 H31           -0.9308    -0.5823     0.2870 H       
  32 H32            1.1804    -1.7877     0.1344 H       
  33 H33            1.0786     3.1658     0.1520 H       
  34 H34            5.7129    -0.4808    -0.1874 H       
  35 H35            2.8747    -2.5524    -0.6995 H       
  36 H36            4.6291    -2.5067    -0.4025 H       
  37 H37            3.4211     4.0819    -0.9090 H       
  38 H38            3.5481     4.0775     0.8738 H       
  39 H39            5.4578     5.7861    -0.1538 H       
  40 H40            7.5927     4.1217    -1.5641 H       
  41 H41            8.2997     6.3058    -2.5015 H       
  42 H42            7.0643     7.1277    -1.5183 H       
  43 H43            9.3784     5.4568    -0.4365 H       
  44 H44            9.2875     7.2344    -0.4253 H       
  45 H45            8.6064     6.2947     1.7660 H       
  46 H46            7.2434     7.1212     0.9738 H       
  47 H47            6.5365     4.9371     1.9112 H       
  48 H48            7.7718     4.1152     0.9280 H       
  49 H49            6.4477     4.9664    -3.4827 H       
  50 H50            2.1038    -4.2591     1.7102 H       
  51 H51            3.1633    -4.4933     0.2917 H       
  52 H52            4.9540    -5.2302     1.5986 H       
  53 H53            3.9823    -3.5250     3.9606 H       
  54 H54            5.5384    -2.4696     1.5361 H       
  55 H55            4.5649    -1.5422     2.7183 H       
@<TRIPOS>BOND
   1    1    2 ar
   2    1    6 ar
   3    1   30 1
   4    2    3 ar
   5    2   31 1
   6    3    4 ar
   7    3   32 1
   8    4    5 ar
   9    4    7 ar
  10    5    6 ar
  11    5   10 ar
  12    6   33 1
  13    7    8 ar
  14    7   11 1
  15    8    9 ar
  16    8   34 1
  17    9   10 ar
  18    9   12 1
  19   10   14 1
  20   11   23 1
  21   11   35 1
  22   11   36 1
  23   12   13 am
  24   12   15 2
  25   13   14 1
  26   13   16 1
  27   14   37 1
  28   14   38 1
  29   16   17 1
  30   16   21 1
  31   16   39 1
  32   17   18 1
  33   17   22 1
  34   17   40 1
  35   18   19 1
  36   18   41 1
  37   18   42 1
  38   19   20 1
  39   19   43 1
  40   19   44 1
  41   20   21 1
  42   20   45 1
  43   20   46 1
  44   21   47 1
  45   21   48 1
  46   22   49 1
  47   23   24 1
  48   23   27 1
  49   24   25 1
  50   24   50 1
  51   24   51 1
  52   25   26 1
  53   25   29 1
  54   25   52 1
  55   26   27 1
  56   26   28 1
  57   26   53 1
  58   27   54 1
  59   27   55 1

#	End of record

