#	Name: ASD01908260
#	Creating user name:	WinNT
#	Creation time:	15. 06. 2019 19:54

#	Modifying user name:	WinNT
#	Modification time:	15. 06. 2019 19:54

#	Program:	/corina/corina34_cracker 3.40 0067  02.08.2006

@<TRIPOS>MOLECULE
ASD01908260
  27   28    0    0    0
SMALL
NO_CHARGES


@<TRIPOS>ATOM
   1 N1             0.0074     1.3950     0.0056 N.pl3   
   2 C2             0.0202    -0.0039    -0.0013 C.ar    
   3 C3             1.2216    -0.6866    -0.1390 C.ar    
   4 C4             1.2326    -2.0713    -0.1452 C.ar    
   5 C5             0.0394    -2.7759    -0.0134 C.ar    
   6 C6            -1.1573    -2.0918     0.1238 C.ar    
   7 C7            -1.1676    -0.7096     0.1353 C.ar    
   8 O8             0.0484    -4.1366    -0.0197 O.3     
   9 C9             0.2744    -4.7764     1.1525 C.ar    
  10 N10            0.1954    -6.0969     1.1929 N.ar    
  11 C11            0.4102    -6.7533     2.3212 C.ar    
  12 C12            0.7208    -6.0408     3.4688 C.ar    
  13 C13            0.7951    -4.6590     3.3902 C.ar    
  14 N14            0.5740    -4.0663     2.2284 N.ar    
  15 O15            2.4077    -2.7420    -0.2804 O.3     
  16 C16            3.5929    -1.9544    -0.4115 C.3     
  17 H17            0.8377     1.8880    -0.0858 H       
  18 H18           -0.8322     1.8718     0.0978 H       
  19 H19            2.1463    -0.1382    -0.2416 H       
  20 H20           -2.0828    -2.6390     0.2261 H       
  21 H21           -2.1011    -0.1781     0.2468 H       
  22 H22            0.3439    -7.8309     2.3480 H       
  23 H23            0.9006    -6.5510     4.4036 H       
  24 H24            1.0348    -4.0737     4.2656 H       
  25 H25            3.7129    -1.3285     0.4729 H       
  26 H26            4.4567    -2.6116    -0.5114 H       
  27 H27            3.5131    -1.3222    -1.2958 H       
@<TRIPOS>BOND
   1    1    2 1
   2    1   17 1
   3    1   18 1
   4    2    3 ar
   5    2    7 ar
   6    3    4 ar
   7    3   19 1
   8    4    5 ar
   9    4   15 1
  10    5    6 ar
  11    5    8 1
  12    6    7 ar
  13    6   20 1
  14    7   21 1
  15    8    9 1
  16    9   10 ar
  17    9   14 ar
  18   10   11 ar
  19   11   12 ar
  20   11   22 1
  21   12   13 ar
  22   12   23 1
  23   13   14 ar
  24   13   24 1
  25   15   16 1
  26   16   25 1
  27   16   26 1
  28   16   27 1

#	End of record

