#	Name: ASD02038516
#	Creating user name:	WinNT
#	Creation time:	15. 06. 2019 20:16

#	Modifying user name:	WinNT
#	Modification time:	15. 06. 2019 20:16

#	Program:	/corina/corina34_cracker 3.40 0067  02.08.2006

@<TRIPOS>MOLECULE
ASD02038516
  51   54    0    0    0
SMALL
NO_CHARGES


@<TRIPOS>ATOM
   1 F1             7.2007     3.8885     0.2675 F       
   2 C2             0.6609    -0.0190     1.3142 C.3     
   3 N3             0.0020    -0.0042     0.0007 N.3     
   4 C4            -1.3592    -0.5495     0.0884 C.3     
   5 C5            -1.2915    -2.0737     0.2029 C.3     
   6 C6            -2.6997    -2.6320     0.4179 C.3     
   7 O7            -2.6245    -4.0414     0.6410 O.3     
   8 C8            -3.7972    -4.6967     0.8511 C.ar    
   9 C9            -3.7944    -6.0644     1.0737 C.ar    
  10 C10           -4.9940    -3.9927     0.8476 C.ar    
  11 C11           -6.1889    -4.6518     1.0608 C.ar    
  12 C12           -6.1940    -6.0207     1.2785 C.ar    
  13 N13           -7.2092    -6.9470     1.5177 N.am    
  14 C14           -0.0095     1.3524    -0.5642 C.3     
  15 C15            1.4293     1.8526    -0.7125 C.3     
  16 N16            2.0882     1.8378     0.6010 N.3     
  17 C17            3.3838     2.3568     0.5175 C.ar    
  18 C18            4.1777     2.4306     1.6546 C.ar    
  19 C19            5.4588     2.9444     1.5695 C.ar    
  20 C20            5.9494     3.3858     0.3495 C.ar    
  21 C21            5.1585     3.3125    -0.7836 C.ar    
  22 C22            3.8802     2.7939    -0.7034 C.ar    
  23 C23           -4.9911    -6.7302     1.2876 C.ar    
  24 O24           -0.7418    -2.6178    -0.9987 O.3     
  25 C25            2.0998     0.4812     1.1659 C.3     
  26 F26            6.2323     3.0168     2.6747 F       
  27 C27           -6.6483    -8.1627     1.6596 C.2     
  28 N28           -5.3122    -8.0642     1.5269 N.am    
  29 O29           -7.2566    -9.1937     1.8785 O.2     
  30 H30            0.1187     0.6315     2.0004 H       
  31 H31            0.6681    -1.0362     1.7060 H       
  32 H32           -1.8584    -0.1409     0.9670 H       
  33 H33           -1.9182    -0.2769    -0.8068 H       
  34 H34           -0.6595    -2.3469     1.0479 H       
  35 H35           -3.1530    -2.1507     1.2846 H       
  36 H36           -3.3072    -2.4359    -0.4656 H       
  37 H37           -2.8624    -6.6101     1.0801 H       
  38 H38           -4.9905    -2.9261     0.6780 H       
  39 H39           -7.1180    -4.1013     1.0582 H       
  40 H40           -8.1572    -6.7490     1.5727 H       
  41 H41           -0.4911     1.3352    -1.5419 H       
  42 H42           -0.5593     2.0186     0.1007 H       
  43 H43            1.9716     1.2021    -1.3987 H       
  44 H44            1.4222     2.8698    -1.1043 H       
  45 H45            3.7950     2.0873     2.6044 H       
  46 H46            5.5424     3.6567    -1.7326 H       
  47 H47            3.2639     2.7372    -1.5884 H       
  48 H48           -1.2540    -2.4138    -1.7931 H       
  49 H49            2.5814     0.4984     2.1436 H       
  50 H50            2.6496    -0.1849     0.5010 H       
  51 H51           -4.6805    -8.7978     1.5868 H       
@<TRIPOS>BOND
   1    1   20 1
   2    2    3 1
   3    2   25 1
   4    2   30 1
   5    2   31 1
   6    3    4 1
   7    3   14 1
   8    4    5 1
   9    4   32 1
  10    4   33 1
  11    5    6 1
  12    5   24 1
  13    5   34 1
  14    6    7 1
  15    6   35 1
  16    6   36 1
  17    7    8 1
  18    8    9 ar
  19    8   10 ar
  20    9   23 ar
  21    9   37 1
  22   10   11 ar
  23   10   38 1
  24   11   12 ar
  25   11   39 1
  26   12   23 ar
  27   12   13 1
  28   13   27 am
  29   13   40 1
  30   14   15 1
  31   14   41 1
  32   14   42 1
  33   15   16 1
  34   15   43 1
  35   15   44 1
  36   16   17 1
  37   16   25 1
  38   17   18 ar
  39   17   22 ar
  40   18   19 ar
  41   18   45 1
  42   19   20 ar
  43   19   26 1
  44   20   21 ar
  45   21   22 ar
  46   21   46 1
  47   22   47 1
  48   23   28 1
  49   24   48 1
  50   25   49 1
  51   25   50 1
  52   27   28 am
  53   27   29 2
  54   28   51 1

#	End of record

