#	Name: ASD01320019
#	Creating user name:	WinNT
#	Creation time:	15. 06. 2019 19:15

#	Modifying user name:	WinNT
#	Modification time:	15. 06. 2019 19:15

#	Program:	/corina/corina34_cracker 3.40 0067  02.08.2006

@<TRIPOS>MOLECULE
ASD01320019
  52   54    0    0    0
SMALL
NO_CHARGES


@<TRIPOS>ATOM
   1 C1             0.4970     1.0276    -0.4371 C.ar    
   2 C2             0.3399    -0.3416    -0.5344 C.ar    
   3 C3             1.4431    -1.1755    -0.4441 C.ar    
   4 C4             2.7125    -0.6325    -0.2555 C.ar    
   5 C5             2.8686     0.7420    -0.1585 C.ar    
   6 C6             1.7606     1.5725    -0.2491 C.ar    
   7 O7             1.2868    -2.5232    -0.5392 O.3     
   8 C8             0.0244    -3.0139    -0.6203 C.ar    
   9 C9            -0.6860    -2.9025    -1.8092 C.ar    
  10 C10           -1.9791    -3.4050    -1.8941 C.ar    
  11 C11           -2.5611    -4.0253    -0.7706 C.ar    
  12 C12           -1.8350    -4.1292     0.4150 C.ar    
  13 C13           -0.5506    -3.6311     0.4846 C.ar    
  14 N14            3.8282    -1.4733    -0.1636 N.am    
  15 C15            4.9316    -1.0597     0.4907 C.2     
  16 C16            6.1530    -1.8921     0.4796 C.ar    
  17 O17            4.9222    -0.0021     1.0901 O.2     
  18 C18            7.2973    -1.4668     1.1561 C.ar    
  19 C19            8.4339    -2.2488     1.1421 C.ar    
  20 C20            8.4410    -3.4520     0.4594 C.ar    
  21 C21            7.3099    -3.8796    -0.2134 C.ar    
  22 C22            6.1653    -3.1100    -0.2030 C.ar    
  23 N23            1.9168     2.9611    -0.1513 N.am    
  24 C24            0.8938     3.7256     0.2797 C.2     
  25 O25           -0.1251     3.2047     0.6816 O.2     
  26 C26            1.0161     5.2275     0.2623 C.3     
  27 C27           -2.7403    -3.2890    -3.1565 C.2     
  28 O28           -3.2085    -4.2815    -3.6768 O.2     
  29 O29           -2.9145    -2.0824    -3.7295 O.3     
  30 C30           -3.9335    -4.5623    -0.8486 C.2     
  31 O31           -4.6010    -4.3807    -1.8472 O.2     
  32 O32           -4.4461    -5.2540     0.1879 O.3     
  33 N33            9.6485    -1.7992     1.8585 N.pl3   
  34 O34            9.6438    -0.7398     2.4597 O.2     
  35 O35           10.6526    -2.4884     1.8470 O.2     
  36 H36           -0.3638     1.6756    -0.5119 H       
  37 H37           -0.6439    -0.7625    -0.6806 H       
  38 H38            3.8513     1.1655    -0.0119 H       
  39 H39           -0.2341    -2.4255    -2.6664 H       
  40 H40           -2.2771    -4.6038     1.2785 H       
  41 H41            0.0084    -3.7137     1.4051 H       
  42 H42            3.8072    -2.3534    -0.5708 H       
  43 H43            7.2931    -0.5275     1.6891 H       
  44 H44            9.3335    -4.0602     0.4512 H       
  45 H45            7.3220    -4.8200    -0.7445 H       
  46 H46            5.2830    -3.4449    -0.7282 H       
  47 H47            2.7611     3.3725    -0.3938 H       
  48 H48            0.6596     5.6100    -0.6941 H       
  49 H49            0.4169     5.6502     1.0688 H       
  50 H50            2.0603     5.5087     0.3996 H       
  51 H51           -3.4190    -2.0567    -4.5540 H       
  52 H52           -5.3491    -5.5860     0.0904 H       
@<TRIPOS>BOND
   1    1    2 ar
   2    1    6 ar
   3    1   36 1
   4    2    3 ar
   5    2   37 1
   6    3    4 ar
   7    3    7 1
   8    4    5 ar
   9    4   14 1
  10    5    6 ar
  11    5   38 1
  12    6   23 1
  13    7    8 1
  14    8    9 ar
  15    8   13 ar
  16    9   10 ar
  17    9   39 1
  18   10   11 ar
  19   10   27 1
  20   11   12 ar
  21   11   30 1
  22   12   13 ar
  23   12   40 1
  24   13   41 1
  25   14   15 am
  26   14   42 1
  27   15   16 1
  28   15   17 2
  29   16   18 ar
  30   16   22 ar
  31   18   19 ar
  32   18   43 1
  33   19   20 ar
  34   19   33 1
  35   20   21 ar
  36   20   44 1
  37   21   22 ar
  38   21   45 1
  39   22   46 1
  40   23   24 am
  41   23   47 1
  42   24   25 2
  43   24   26 1
  44   26   48 1
  45   26   49 1
  46   26   50 1
  47   27   28 2
  48   27   29 1
  49   29   51 1
  50   30   31 2
  51   30   32 1
  52   32   52 1
  53   33   34 2
  54   33   35 2

#	End of record

