#	Name: ASD04590948
#	Creating user name:	WinNT
#	Creation time:	15. 06. 2019 20:51

#	Modifying user name:	WinNT
#	Modification time:	15. 06. 2019 20:51

#	Program:	/corina/corina34_cracker 3.40 0067  02.08.2006

@<TRIPOS>MOLECULE
ASD04590948
  57   62    0    0    0
SMALL
NO_CHARGES


@<TRIPOS>ATOM
   1 N1            -0.0145     1.3220     0.0158 N.ar    
   2 C2             0.0026    -0.0049     0.0121 C.ar    
   3 N3             1.1302    -0.6977     0.0110 N.ar    
   4 C4             2.3060    -0.0769     0.0131 C.ar    
   5 C5             2.3216     1.3325     0.0166 C.ar    
   6 C6             1.1106     2.0176     0.0181 C.ar    
   7 N7             3.6037    -0.5250     0.0122 N.pl3   
   8 C8             4.4842     0.5431     0.0150 C.ar    
   9 C9             3.7344     1.7329     0.0178 C.ar    
  10 C10            5.8701     0.6339     0.0155 C.ar    
  11 N11            6.4647     1.8095     0.0189 N.ar    
  12 C12            5.7897     2.9454     0.0216 C.ar    
  13 C13            4.4110     2.9521     0.0209 C.ar    
  14 C14            4.0007    -1.9352     0.0093 C.3     
  15 C15            3.4472    -2.6412     1.2594 C.3     
  16 C16            2.5176    -3.7646     0.7558 C.3     
  17 C17            3.0232    -4.0620    -0.6777 C.3     
  18 C18            3.3881    -2.6541    -1.2104 C.3     
  19 N19           -1.2012    -0.6884     0.0098 N.pl3   
  20 C20           -2.4067     0.0155     0.1309 C.ar    
  21 C21           -3.5430    -0.4196    -0.5335 C.ar    
  22 N22           -4.6820     0.2381    -0.4244 N.ar    
  23 C23           -4.7864     1.3297     0.3164 C.ar    
  24 C24           -3.6881     1.8250     1.0117 C.ar    
  25 C25           -2.4796     1.1587     0.9256 C.ar    
  26 N26           -6.0095     1.9903     0.4006 N.3     
  27 C27           -7.0329     1.3083    -0.4039 C.3     
  28 C28           -8.3771     2.0171    -0.2220 C.3     
  29 N29           -8.2448     3.4238    -0.6259 N.3     
  30 C30           -7.2215     4.1058     0.1787 C.3     
  31 C31           -5.8773     3.3970    -0.0033 C.3     
  32 H32            1.0896     3.0974     0.0212 H       
  33 H33            6.4655    -0.2672     0.0133 H       
  34 H34            6.3261     3.8828     0.0247 H       
  35 H35            3.8653     3.8842     0.0235 H       
  36 H36            5.0874    -2.0168    -0.0153 H       
  37 H37            4.2652    -3.0662     1.8411 H       
  38 H38            2.8832    -1.9347     1.8683 H       
  39 H39            2.6128    -4.6494     1.3851 H       
  40 H40            1.4832    -3.4217     0.7320 H       
  41 H41            3.9029    -4.7050    -0.6514 H       
  42 H42            2.2335    -4.5104    -1.2806 H       
  43 H43            2.4943    -2.1319    -1.5518 H       
  44 H44            4.1186    -2.7285    -2.0160 H       
  45 H45           -1.2102    -1.6546    -0.0756 H       
  46 H46           -3.4955    -1.3066    -1.1478 H       
  47 H47           -3.7793     2.7163     1.6147 H       
  48 H48           -1.6103     1.5202     1.4549 H       
  49 H49           -6.7467     1.3357    -1.4554 H       
  50 H50           -7.1211     0.2720    -0.0776 H       
  51 H51           -9.1314     1.5306    -0.8404 H       
  52 H52           -8.6764     1.9660     0.8249 H       
  53 H53           -8.0400     3.4995    -1.6110 H       
  54 H54           -7.1333     5.1421    -0.1477 H       
  55 H55           -7.5076     4.0784     1.2301 H       
  56 H56           -5.1229     3.8836     0.6151 H       
  57 H57           -5.5780     3.4482    -1.0502 H       
@<TRIPOS>BOND
   1    1    2 ar
   2    1    6 ar
   3    2    3 ar
   4    2   19 1
   5    3    4 ar
   6    4    5 ar
   7    4    7 1
   8    5    6 ar
   9    5    9 1
  10    6   32 1
  11    7    8 1
  12    7   14 1
  13    8    9 ar
  14    8   10 ar
  15    9   13 ar
  16   10   11 ar
  17   10   33 1
  18   11   12 ar
  19   12   13 ar
  20   12   34 1
  21   13   35 1
  22   14   15 1
  23   14   18 1
  24   14   36 1
  25   15   16 1
  26   15   37 1
  27   15   38 1
  28   16   17 1
  29   16   39 1
  30   16   40 1
  31   17   18 1
  32   17   41 1
  33   17   42 1
  34   18   43 1
  35   18   44 1
  36   19   20 1
  37   19   45 1
  38   20   21 ar
  39   20   25 ar
  40   21   22 ar
  41   21   46 1
  42   22   23 ar
  43   23   24 ar
  44   23   26 1
  45   24   25 ar
  46   24   47 1
  47   25   48 1
  48   26   27 1
  49   26   31 1
  50   27   28 1
  51   27   49 1
  52   27   50 1
  53   28   29 1
  54   28   51 1
  55   28   52 1
  56   29   30 1
  57   29   53 1
  58   30   31 1
  59   30   54 1
  60   30   55 1
  61   31   56 1
  62   31   57 1

#	End of record

