#	Name: ASD03330326
#	Creating user name:	WinNT
#	Creation time:	15. 06. 2019 20:37

#	Modifying user name:	WinNT
#	Modification time:	15. 06. 2019 20:37

#	Program:	/corina/corina34_cracker 3.40 0067  02.08.2006

@<TRIPOS>MOLECULE
ASD03330326
  51   54    0    0    0
SMALL
NO_CHARGES


@<TRIPOS>ATOM
   1 C1            -0.1683     1.6113    -0.2623 C.3     
   2 N2            -0.2153     0.1416    -0.2859 N.am    
   3 C3             0.4156    -0.5544    -1.4237 C.3     
   4 C4             1.7335     0.1333    -1.6826 C.2     
   5 N5             2.1041     1.3122    -1.1094 N.pl3   
   6 C6             1.2903     2.0707    -0.1568 C.3     
   7 C7             2.7504    -0.2619    -2.4900 C.2     
   8 N8             3.7239     0.6731    -2.4101 N.2     
   9 C9             3.3426     1.6213    -1.5853 C.2     
  10 C10            4.1272     2.8249    -1.2322 C.ar    
  11 C11            5.2291     3.1941    -2.0041 C.ar    
  12 C12            2.7871    -1.4882    -3.3058 C.2     
  13 O13            1.8436    -2.2558    -3.2928 O.2     
  14 C14            3.9497    -2.9750    -4.7532 C.ar    
  15 N15            3.8660    -1.7595    -4.0665 N.am    
  16 S16           -0.9541    -0.7072     0.9291 S.o2    
  17 O17           -0.8723     0.1528     2.0573 O.2     
  18 C18           -2.6751    -0.8765     0.3812 C.3     
  19 O19           -0.3018    -1.9697     0.9214 O.2     
  20 C20           -3.4708    -1.6530     1.4323 C.3     
  21 C21            4.5599    -3.0296    -5.9997 C.ar    
  22 C22            5.9567     4.3177    -1.6695 C.ar    
  23 C23            5.5955     5.0776    -0.5712 C.ar    
  24 C24            4.5039     4.7167     0.1982 C.ar    
  25 C25            3.7647     3.5986    -0.1293 C.ar    
  26 C26            3.4279    -4.1312    -4.1877 C.ar    
  27 C27            3.5172    -5.3310    -4.8659 C.ar    
  28 C28            4.1253    -5.3819    -6.1068 C.ar    
  29 C29            4.6459    -4.2325    -6.6727 C.ar    
  30 H30           -0.6080     2.0041    -1.1791 H       
  31 H31           -0.7287     1.9794     0.5971 H       
  32 H32            0.5853    -1.6013    -1.1719 H       
  33 H33           -0.2219    -0.4811    -2.3047 H       
  34 H34            1.3548     3.1339    -0.3883 H       
  35 H35            1.6552     1.8947     0.8551 H       
  36 H36            5.5122     2.6016    -2.8614 H       
  37 H37            4.5845    -1.1118    -4.1377 H       
  38 H38           -3.1139     0.1127     0.2509 H       
  39 H39           -2.7035    -1.4144    -0.5664 H       
  40 H40           -3.0320    -2.6422     1.5627 H       
  41 H41           -3.4425    -1.1152     2.3800 H       
  42 H42           -4.5049    -1.7547     1.1031 H       
  43 H43            4.9663    -2.1322    -6.4424 H       
  44 H44            6.8101     4.6044    -2.2660 H       
  45 H45            6.1685     5.9560    -0.3132 H       
  46 H46            4.2270     5.3140     1.0543 H       
  47 H47            2.9127     3.3180     0.4721 H       
  48 H48            2.9531    -4.0922    -3.2184 H       
  49 H49            3.1120    -6.2305    -4.4265 H       
  50 H50            4.1939    -6.3213    -6.6352 H       
  51 H51            5.1206    -4.2757    -7.6419 H       
@<TRIPOS>BOND
   1    1    2 1
   2    1    6 1
   3    1   30 1
   4    1   31 1
   5    2    3 1
   6    2   16 am
   7    3    4 1
   8    3   32 1
   9    3   33 1
  10    4    5 1
  11    4    7 2
  12    5    6 1
  13    5    9 1
  14    6   34 1
  15    6   35 1
  16    7    8 1
  17    7   12 1
  18    8    9 2
  19    9   10 1
  20   10   11 ar
  21   10   25 ar
  22   11   22 ar
  23   11   36 1
  24   12   13 2
  25   12   15 am
  26   14   21 ar
  27   14   26 ar
  28   14   15 1
  29   15   37 1
  30   16   17 2
  31   16   18 1
  32   16   19 2
  33   18   20 1
  34   18   38 1
  35   18   39 1
  36   20   40 1
  37   20   41 1
  38   20   42 1
  39   21   29 ar
  40   21   43 1
  41   22   23 ar
  42   22   44 1
  43   23   24 ar
  44   23   45 1
  45   24   25 ar
  46   24   46 1
  47   25   47 1
  48   26   27 ar
  49   26   48 1
  50   27   28 ar
  51   27   49 1
  52   28   29 ar
  53   28   50 1
  54   29   51 1

#	End of record

