#	Name: ASD01883015
#	Creating user name:	WinNT
#	Creation time:	15. 06. 2019 19:45

#	Modifying user name:	WinNT
#	Modification time:	15. 06. 2019 19:45

#	Program:	/corina/corina34_cracker 3.40 0067  02.08.2006

@<TRIPOS>MOLECULE
ASD01883015
  49   52    0    0    0
SMALL
NO_CHARGES


@<TRIPOS>ATOM
   1 N1            -0.0162     1.3417     0.0094 N.am    
   2 C2             0.0021    -0.0041     0.0020 C.2     
   3 C3            -1.2159    -0.7274     0.0098 C.2     
   4 C4            -2.4263    -0.0109     0.0252 C.2     
   5 C5            -2.3786     1.3974     0.0323 C.2     
   6 C6            -1.1852     2.0327     0.0299 C.2     
   7 O7             1.0657    -0.6000    -0.0117 O.2     
   8 C8            -1.2149    -2.1593     0.0016 C.1     
   9 N9            -1.2141    -3.2953    -0.0049 N.1     
  10 C10            1.2513     2.0763     0.0013 C.3     
  11 C11            1.6788     2.3398    -1.4440 C.3     
  12 C12            2.9239     3.2005    -1.6667 C.3     
  13 C13            2.9795     1.6935    -1.9250 C.3     
  14 C14           -5.7780    -1.2772     1.1433 C.ar    
  15 C15           -4.5707    -0.6151     1.1380 C.ar    
  16 C16           -3.7215    -0.7207     0.0332 C.ar    
  17 C17           -4.1003    -1.4988    -1.0642 C.ar    
  18 C18           -5.3100    -2.1594    -1.0534 C.ar    
  19 C19           -6.1538    -2.0514     0.0503 C.ar    
  20 F20           -5.6780    -2.9117    -2.1136 F       
  21 N21           -7.3761    -2.7205     0.0593 N.pl3   
  22 C22           -8.8479    -3.5748     3.4447 C.3     
  23 O23          -10.1767    -3.7926     2.9664 O.3     
  24 C24          -10.6202    -2.8236     2.0143 C.3     
  25 C25           -9.7102    -2.8655     0.7839 C.3     
  26 C26           -8.2643    -2.6078     1.2190 C.3     
  27 C27           -7.8666    -3.6469     2.2718 C.3     
  28 H28           -3.2949     1.9690     0.0437 H       
  29 H29           -1.1610     3.1124     0.0358 H       
  30 H30            1.1243     3.0257     0.5214 H       
  31 H31            2.0168     1.4857     0.5046 H       
  32 H32            0.8665     2.4337    -2.1648 H       
  33 H33            2.9310     3.8604    -2.5342 H       
  34 H34            3.4386     3.5791    -0.7835 H       
  35 H35            3.5307     1.0806    -1.2118 H       
  36 H36            3.0232     1.3620    -2.9624 H       
  37 H37           -6.4322    -1.1990     1.9991 H       
  38 H38           -4.2804    -0.0141     1.9871 H       
  39 H39           -3.4463    -1.5821    -1.9196 H       
  40 H40           -7.6389    -3.2608    -0.7022 H       
  41 H41           -8.7858    -2.5914     3.9106 H       
  42 H42           -8.5952    -4.3410     4.1776 H       
  43 H43          -11.6444    -3.0487     1.7167 H       
  44 H44          -10.5814    -1.8303     2.4615 H       
  45 H45           -9.7796    -3.8459     0.3127 H       
  46 H46          -10.0198    -2.0972     0.0755 H       
  47 H47           -8.1845    -1.6078     1.6452 H       
  48 H48           -6.8578    -3.4374     2.6275 H       
  49 H49           -7.8988    -4.6431     1.8307 H       
@<TRIPOS>BOND
   1    1    2 am
   2    1   10 1
   3    1    6 1
   4    2    3 1
   5    2    7 2
   6    3    4 2
   7    3    8 1
   8    4    5 1
   9    4   16 1
  10    5    6 2
  11    5   28 1
  12    6   29 1
  13    8    9 3
  14   10   11 1
  15   10   30 1
  16   10   31 1
  17   11   12 1
  18   11   13 1
  19   11   32 1
  20   12   13 1
  21   12   33 1
  22   12   34 1
  23   13   35 1
  24   13   36 1
  25   14   15 ar
  26   14   19 ar
  27   14   37 1
  28   15   16 ar
  29   15   38 1
  30   16   17 ar
  31   17   18 ar
  32   17   39 1
  33   18   19 ar
  34   18   20 1
  35   19   21 1
  36   21   26 1
  37   21   40 1
  38   22   23 1
  39   22   27 1
  40   22   41 1
  41   22   42 1
  42   23   24 1
  43   24   25 1
  44   24   43 1
  45   24   44 1
  46   25   26 1
  47   25   45 1
  48   25   46 1
  49   26   27 1
  50   26   47 1
  51   27   48 1
  52   27   49 1

#	End of record

