#	Name: ASD01182001
#	Creating user name:	WinNT
#	Creation time:	15. 06. 2019 19:07

#	Modifying user name:	WinNT
#	Modification time:	15. 06. 2019 19:07

#	Program:	/corina/corina34_cracker 3.40 0067  02.08.2006

@<TRIPOS>MOLECULE
ASD01182001
  47   50    0    0    0
SMALL
NO_CHARGES


@<TRIPOS>ATOM
   1 C1            -0.0179     1.3800     0.0397 C.ar    
   2 C2             0.0005    -0.0027     0.0391 C.ar    
   3 C3             1.2055    -0.6810     0.0260 C.ar    
   4 C4             2.3947     0.0211     0.0139 C.ar    
   5 C5             2.3796     1.4096     0.0144 C.ar    
   6 C6             1.1680     2.0879     0.0272 C.ar    
   7 N7             3.5843     2.1247     0.0027 N.pl3   
   8 C8             3.6895     3.4651     0.0020 C.2     
   9 C9             5.0318     3.7840    -0.0104 C.2     
  10 C10            5.7597     2.5110    -0.0175 C.2     
  11 N11            4.8599     1.5534    -0.0042 N.2     
  12 C12            7.2320     2.3373    -0.0313 C.ar    
  13 C13            5.6175     5.1351    -0.0160 C.2     
  14 O14            6.8258     5.2741    -0.0276 O.2     
  15 N15            4.8147     6.2176    -0.0081 N.am    
  16 C16            5.3686     7.4995     0.0995 C.ar    
  17 C17            4.7832     8.5674    -0.5676 C.ar    
  18 C18            5.3296     9.8311    -0.4607 C.ar    
  19 C19            6.4631    10.0338     0.3130 C.ar    
  20 C20            7.0487     8.9673     0.9793 C.ar    
  21 C21            6.5001     7.7042     0.8779 C.ar    
  22 O22            7.0006    11.2784     0.4178 O.3     
  23 C23            8.1677    11.4146     1.2310 C.3     
  24 C24            7.8173     1.2742     0.6546 C.ar    
  25 C25            9.1881     1.1171     0.6386 C.ar    
  26 C26            9.9817     2.0129    -0.0570 C.ar    
  27 C27            9.4056     3.0702    -0.7398 C.ar    
  28 C28            8.0354     3.2332    -0.7350 C.ar    
  29 Br29          11.8596     1.7917    -0.0741 Br      
  30 H30           -0.9606     1.9070     0.0455 H       
  31 H31           -0.9281    -0.5540     0.0493 H       
  32 H32            1.2166    -1.7610     0.0255 H       
  33 H33            3.3355    -0.5093     0.0043 H       
  34 H34            1.1530     3.1678     0.0274 H       
  35 H35            2.8691     4.1674     0.0093 H       
  36 H36            3.8533     6.1089    -0.0770 H       
  37 H37            3.9009     8.4097    -1.1702 H       
  38 H38            4.8746    10.6617    -0.9797 H       
  39 H39            7.9314     9.1258     1.5811 H       
  40 H40            6.9561     6.8740     1.3967 H       
  41 H41            8.4927    12.4550     1.2287 H       
  42 H42            7.9375    11.1081     2.2513 H       
  43 H43            8.9633    10.7846     0.8331 H       
  44 H44            7.1990     0.5749     1.1979 H       
  45 H45            9.6426     0.2940     1.1699 H       
  46 H46           10.0293     3.7663    -1.2810 H       
  47 H47            7.5869     4.0583    -1.2684 H       
@<TRIPOS>BOND
   1    1    2 ar
   2    1    6 ar
   3    1   30 1
   4    2    3 ar
   5    2   31 1
   6    3    4 ar
   7    3   32 1
   8    4    5 ar
   9    4   33 1
  10    5    6 ar
  11    5    7 1
  12    6   34 1
  13    7    8 1
  14    7   11 1
  15    8    9 2
  16    8   35 1
  17    9   10 1
  18    9   13 1
  19   10   11 2
  20   10   12 1
  21   12   24 ar
  22   12   28 ar
  23   13   14 2
  24   13   15 am
  25   15   16 1
  26   15   36 1
  27   16   17 ar
  28   16   21 ar
  29   17   18 ar
  30   17   37 1
  31   18   19 ar
  32   18   38 1
  33   19   20 ar
  34   19   22 1
  35   20   21 ar
  36   20   39 1
  37   21   40 1
  38   22   23 1
  39   23   41 1
  40   23   42 1
  41   23   43 1
  42   24   25 ar
  43   24   44 1
  44   25   26 ar
  45   25   45 1
  46   26   27 ar
  47   26   29 1
  48   27   28 ar
  49   27   46 1
  50   28   47 1

#	End of record

