#	Name: ASD04880472
#	Creating user name:	WinNT
#	Creation time:	15. 06. 2019 20:53

#	Modifying user name:	WinNT
#	Modification time:	15. 06. 2019 20:53

#	Program:	/corina/corina34_cracker 3.40 0067  02.08.2006

@<TRIPOS>MOLECULE
ASD04880472
  48   50    0    0    0
SMALL
NO_CHARGES


@<TRIPOS>ATOM
   1 C1             0.4471     1.0463    -0.4512 C.ar    
   2 C2             0.3607    -0.3411    -0.3592 C.ar    
   3 C3            -0.8767    -0.9542    -0.2980 C.ar    
   4 C4            -2.0389    -0.1791    -0.3283 C.ar    
   5 C5            -1.9445     1.2119    -0.4203 C.ar    
   6 C6            -0.7065     1.8166    -0.4756 C.ar    
   7 O7             1.6649     1.6472    -0.5117 O.3     
   8 C8             1.6809     3.0731    -0.6051 C.3     
   9 C9            -3.3613    -0.8274    -0.2639 C.2     
  10 C10           -4.6854    -0.1022    -0.1794 C.3     
  11 C11           -5.7282    -1.2367    -0.1376 C.3     
  12 N12           -4.9112    -2.4590    -0.2010 N.am    
  13 N13           -3.5672    -2.0991    -0.2764 N.2     
  14 C14           -5.3857    -3.7205    -0.1924 C.2     
  15 O15           -6.5721    -3.9212    -0.0373 O.2     
  16 C16           -4.4427    -4.8815    -0.3755 C.3     
  17 C17           -4.7780    -5.6042    -1.6547 C.ar    
  18 O18           -3.0993    -4.3985    -0.4394 O.3     
  19 C19           -5.7520    -6.5880    -1.6594 C.ar    
  20 C20           -2.1259    -5.3208     0.0547 C.3     
  21 O21            1.4939    -1.0924    -0.3299 O.3     
  22 C22            1.3309    -2.5089    -0.2346 C.3     
  23 C23           -6.0591    -7.2512    -2.8356 C.ar    
  24 C24           -5.3932    -6.9305    -4.0031 C.ar    
  25 C25           -4.4206    -5.9477    -3.9972 C.ar    
  26 C26           -4.1172    -5.2811    -2.8250 C.ar    
  27 F27           -6.4021    -6.9010    -0.5172 F       
  28 H28           -0.9450    -2.0297    -0.2273 H       
  29 H29           -2.8411     1.8136    -0.4443 H       
  30 H30           -0.6349     2.8919    -0.5464 H       
  31 H31            1.1867     3.4999     0.2677 H       
  32 H32            2.7124     3.4230    -0.6460 H       
  33 H33            1.1557     3.3840    -1.5082 H       
  34 H34           -4.7357     0.4971     0.7297 H       
  35 H35           -4.8357     0.5230    -1.0595 H       
  36 H36           -6.2954    -1.2023     0.7925 H       
  37 H37           -6.3954    -1.1763    -0.9975 H       
  38 H38           -4.5427    -5.5671     0.4660 H       
  39 H39           -2.1656    -6.2393    -0.5308 H       
  40 H40           -1.1326    -4.8798    -0.0282 H       
  41 H41           -2.3371    -5.5467     1.0999 H       
  42 H42            0.7635    -2.8679    -1.0932 H       
  43 H43            2.3102    -2.9872    -0.2204 H       
  44 H44            0.7945    -2.7520     0.6827 H       
  45 H45           -6.8185    -8.0191    -2.8403 H       
  46 H46           -5.6323    -7.4479    -4.9204 H       
  47 H47           -3.9004    -5.6980    -4.9101 H       
  48 H48           -3.3574    -4.5136    -2.8216 H       
@<TRIPOS>BOND
   1    1    2 ar
   2    1    7 1
   3    1    6 ar
   4    2    3 ar
   5    2   21 1
   6    3    4 ar
   7    3   28 1
   8    4    5 ar
   9    4    9 1
  10    5    6 ar
  11    5   29 1
  12    6   30 1
  13    7    8 1
  14    8   31 1
  15    8   32 1
  16    8   33 1
  17    9   10 1
  18    9   13 2
  19   10   11 1
  20   10   34 1
  21   10   35 1
  22   11   12 1
  23   11   36 1
  24   11   37 1
  25   12   13 1
  26   12   14 am
  27   14   15 2
  28   14   16 1
  29   16   17 1
  30   16   18 1
  31   16   38 1
  32   17   19 ar
  33   17   26 ar
  34   18   20 1
  35   19   23 ar
  36   19   27 1
  37   20   39 1
  38   20   40 1
  39   20   41 1
  40   21   22 1
  41   22   42 1
  42   22   43 1
  43   22   44 1
  44   23   24 ar
  45   23   45 1
  46   24   25 ar
  47   24   46 1
  48   25   26 ar
  49   25   47 1
  50   26   48 1

#	End of record

