#	Name: ASD01028642
#	Creating user name:	WinNT
#	Creation time:	15. 06. 2019 18:57

#	Modifying user name:	WinNT
#	Modification time:	15. 06. 2019 18:57

#	Program:	/corina/corina34_cracker 3.40 0067  02.08.2006

@<TRIPOS>MOLECULE
ASD01028642
  48   50    0    0    0
SMALL
NO_CHARGES


@<TRIPOS>ATOM
   1 N1            -0.0169     1.3921     0.0097 N.2     
   2 N2             0.0021    -0.0041     0.0020 N.pl3   
   3 C3             1.1087     2.0746     0.0026 C.2     
   4 C4             2.3555     1.4108    -0.0129 C.2     
   5 C5             2.4043     0.0531    -0.0211 C.2     
   6 C6             1.2004    -0.6774    -0.0130 C.2     
   7 N7             0.9138    -1.9689    -0.0175 N.2     
   8 N8            -0.3645    -2.1207    -0.0054 N.2     
   9 C9            -0.9590    -0.9535     0.0061 C.2     
  10 N10           -2.9145    -0.6422     1.4090 N.am    
  11 C11           -4.2200    -0.4321     1.6697 C.2     
  12 C12            1.0674     3.5527     0.0105 C.2     
  13 C13           -2.4466    -0.7132     0.0225 C.3     
  14 O14           -5.0089    -0.3016     0.7548 O.2     
  15 O15           -4.6500    -0.3669     2.9439 O.3     
  16 C16           -6.0690    -0.1383     3.1498 C.3     
  17 C17           -6.8673    -1.2726     2.5041 C.3     
  18 C18           -6.3662    -0.0953     4.6501 C.3     
  19 C19           -6.4688     1.1939     2.5123 C.3     
  20 C20           -0.8708     6.7301     0.0431 C.3     
  21 C21           -1.3451     6.9890    -1.3883 C.3     
  22 C22           -2.0382     6.2024     0.8796 C.3     
  23 S23            2.4372     4.6775     0.0027 S.3     
  24 N24            1.4840     6.0814     0.0180 N.2     
  25 C25            0.2380     5.7096     0.0280 C.2     
  26 C26           -0.0441     4.3659     0.0193 C.2     
  27 H27            3.2712     1.9834    -0.0185 H       
  28 H28            3.3547    -0.4596    -0.0329 H       
  29 H29           -2.2847    -0.7464     2.1393 H       
  30 H30           -2.6685     0.2259    -0.4844 H       
  31 H31           -2.9525    -1.5313    -0.4902 H       
  32 H32           -6.5825    -2.2216     2.9583 H       
  33 H33           -7.9326    -1.1010     2.6587 H       
  34 H34           -6.6556    -1.3032     1.4353 H       
  35 H35           -5.7975     0.7128     5.1101 H       
  36 H36           -7.4315     0.0764     4.8047 H       
  37 H37           -6.0814    -1.0443     5.1042 H       
  38 H38           -6.2570     1.1632     1.4435 H       
  39 H39           -7.5340     1.3655     2.6669 H       
  40 H40           -5.9000     2.0020     2.9724 H       
  41 H41           -0.5033     7.6596     0.4778 H       
  42 H42           -2.1471     7.7271    -1.3774 H       
  43 H43           -0.5134     7.3649    -1.9842 H       
  44 H44           -1.7126     6.0595    -1.8230 H       
  45 H45           -1.7003     6.0179     1.8993 H       
  46 H46           -2.8402     6.9405     0.8905 H       
  47 H47           -2.4057     5.2729     0.4448 H       
  48 H48           -1.0526     3.9793     0.0222 H       
@<TRIPOS>BOND
   1    1    2 1
   2    1    3 2
   3    2    6 1
   4    2    9 1
   5    3    4 1
   6    3   12 1
   7    4    5 2
   8    4   27 1
   9    5    6 1
  10    5   28 1
  11    6    7 2
  12    7    8 1
  13    8    9 2
  14    9   13 1
  15   10   11 am
  16   10   13 1
  17   10   29 1
  18   11   14 2
  19   11   15 1
  20   12   23 1
  21   12   26 2
  22   13   30 1
  23   13   31 1
  24   15   16 1
  25   16   17 1
  26   16   18 1
  27   16   19 1
  28   17   32 1
  29   17   33 1
  30   17   34 1
  31   18   35 1
  32   18   36 1
  33   18   37 1
  34   19   38 1
  35   19   39 1
  36   19   40 1
  37   20   21 1
  38   20   22 1
  39   20   25 1
  40   20   41 1
  41   21   42 1
  42   21   43 1
  43   21   44 1
  44   22   45 1
  45   22   46 1
  46   22   47 1
  47   23   24 1
  48   24   25 2
  49   25   26 1
  50   26   48 1

#	End of record

