#	Name: ASD01900780
#	Creating user name:	WinNT
#	Creation time:	15. 06. 2019 19:52

#	Modifying user name:	WinNT
#	Modification time:	15. 06. 2019 19:52

#	Program:	/corina/corina34_cracker 3.40 0067  02.08.2006

@<TRIPOS>MOLECULE
ASD01900780
  53   57    0    0    0
SMALL
NO_CHARGES


@<TRIPOS>ATOM
   1 C1            -0.0157     1.4087    -0.1144 C.ar    
   2 C2             0.0118     0.0197    -0.1185 C.ar    
   3 C3            -1.1603    -0.7070    -0.0674 C.ar    
   4 C4            -2.3833    -0.0520    -0.0110 C.ar    
   5 C5            -2.4090     1.3491    -0.0108 C.ar    
   6 O6            -3.5356    -0.7546     0.0507 O.3     
   7 C7            -4.7274    -0.1809    -0.1903 C.2     
   8 C8            -4.9042     1.1648    -0.2058 C.2     
   9 C9            -3.7317     2.0233     0.0366 C.2     
  10 C10           -5.8886    -1.0482    -0.4487 C.2     
  11 N11           -7.1038    -0.4998    -0.6950 N.2     
  12 C12           -8.1532    -1.2286    -0.9276 C.2     
  13 N13           -8.0870    -2.5948    -0.9361 N.pl3   
  14 C14           -6.8760    -3.2183    -0.6918 C.2     
  15 C15           -5.7398    -2.4250    -0.4459 C.2     
  16 C16           -1.2278     2.0774    -0.0545 C.ar    
  17 C17           -9.0253    -3.5586    -1.1491 C.2     
  18 C18           -8.4392    -4.7764    -1.0459 C.2     
  19 C19           -7.0848    -4.5832    -0.7582 C.2     
  20 O20            1.1469     2.1119    -0.1635 O.3     
  21 C21            2.3595     1.3577    -0.2178 C.3     
  22 C22            3.5529     2.3138    -0.2677 C.3     
  23 C23            4.8512     1.5062    -0.3259 C.3     
  24 O24            5.9659     2.3992    -0.3725 O.3     
  25 C25            7.2034     1.8391    -0.4275 C.ar    
  26 C26            8.3296     2.6474    -0.4748 C.ar    
  27 C27            7.3412     0.4589    -0.4307 C.ar    
  28 C28            8.5994    -0.1088    -0.4867 C.ar    
  29 C29            9.7225     0.6991    -0.5392 C.ar    
  30 C30            9.5866     2.0770    -0.5308 C.ar    
  31 F31           10.9524     0.1426    -0.5930 F       
  32 N32           -3.8489     3.3071     0.2803 N.2     
  33 O33           -2.7115     4.0638     0.6527 O.3     
  34 H34            0.9596    -0.4963    -0.1625 H       
  35 H35           -1.1262    -1.7865    -0.0717 H       
  36 H36           -5.8776     1.5943    -0.3911 H       
  37 H37           -9.0998    -0.7449    -1.1182 H       
  38 H38           -4.7789    -2.8782    -0.2520 H       
  39 H39           -1.2538     3.1571    -0.0508 H       
  40 H40          -10.0685    -3.3812    -1.3651 H       
  41 H41           -8.9324    -5.7298    -1.1653 H       
  42 H42           -6.3424    -5.3542    -0.6145 H       
  43 H43            2.4355     0.7277     0.6684 H       
  44 H44            2.3581     0.7314    -1.1099 H       
  45 H45            3.4769     2.9438    -1.1539 H       
  46 H46            3.5543     2.9401     0.6244 H       
  47 H47            4.9272     0.8762     0.5603 H       
  48 H48            4.8498     0.8799    -1.2180 H       
  49 H49            8.2239     3.7222    -0.4683 H       
  50 H50            6.4653    -0.1715    -0.3891 H       
  51 H51            8.7070    -1.1835    -0.4892 H       
  52 H52           10.4635     2.7061    -0.5717 H       
  53 H53           -2.8964     4.9995     0.8115 H       
@<TRIPOS>BOND
   1    1    2 ar
   2    1   20 1
   3    1   16 ar
   4    2    3 ar
   5    2   34 1
   6    3    4 ar
   7    3   35 1
   8    4    5 ar
   9    4    6 1
  10    5   16 ar
  11    5    9 1
  12    6    7 1
  13    7    8 2
  14    7   10 1
  15    8    9 1
  16    8   36 1
  17    9   32 2
  18   10   11 1
  19   10   15 2
  20   11   12 2
  21   12   13 1
  22   12   37 1
  23   13   14 1
  24   13   17 1
  25   14   15 1
  26   14   19 2
  27   15   38 1
  28   16   39 1
  29   17   18 2
  30   17   40 1
  31   18   19 1
  32   18   41 1
  33   19   42 1
  34   20   21 1
  35   21   22 1
  36   21   43 1
  37   21   44 1
  38   22   23 1
  39   22   45 1
  40   22   46 1
  41   23   24 1
  42   23   47 1
  43   23   48 1
  44   24   25 1
  45   25   26 ar
  46   25   27 ar
  47   26   30 ar
  48   26   49 1
  49   27   28 ar
  50   27   50 1
  51   28   29 ar
  52   28   51 1
  53   29   30 ar
  54   29   31 1
  55   30   52 1
  56   32   33 1
  57   33   53 1

#	End of record

