#	Name: ASD00431006
#	Creating user name:	WinNT
#	Creation time:	15. 06. 2019 18:35

#	Modifying user name:	WinNT
#	Modification time:	15. 06. 2019 18:35

#	Program:	/corina/corina34_cracker 3.40 0067  02.08.2006

@<TRIPOS>MOLECULE
ASD00431006
  28   27    0    0    0
SMALL
NO_CHARGES


@<TRIPOS>ATOM
   1 C1            -0.0187     1.5258     0.0104 C.3     
   2 C2             0.0021    -0.0041     0.0020 C.3     
   3 C3            -1.4333    -0.5336     0.0129 C.3     
   4 C4            -1.4126    -2.0635     0.0045 C.3     
   5 C5            -2.8479    -2.5931     0.0153 C.3     
   6 C6             1.3960     3.5852     0.0080 C.3     
   7 C7             1.4167     2.0553    -0.0004 C.3     
   8 N8            -2.8280    -4.0619     0.0072 N.3     
   9 C9             2.8313     4.1148    -0.0029 C.3     
  10 H10           -0.5459     1.8868    -0.8726 H       
  11 H11           -0.5289     1.8773     0.9072 H       
  12 H12            0.5123    -0.3556    -0.8948 H       
  13 H13            0.5293    -0.3651     0.8851 H       
  14 H14           -1.9435    -0.1821     0.9097 H       
  15 H15           -1.9605    -0.1726    -0.8702 H       
  16 H16           -0.9024    -2.4150    -0.8923 H       
  17 H17           -0.8854    -2.4246     0.8875 H       
  18 H18           -3.3581    -2.2415     0.9121 H       
  19 H19           -3.3751    -2.2320    -0.8677 H       
  20 H20            0.8688     3.9463    -0.8751 H       
  21 H21            0.8858     3.9367     0.9048 H       
  22 H22            1.9439     1.6943     0.8826 H       
  23 H23            1.9269     1.7038    -0.8972 H       
  24 H24           -2.2896    -4.4205     0.7816 H       
  25 H25           -3.7650    -4.4363     0.0142 H       
  26 H26            3.3585     3.7537     0.8802 H       
  27 H27            3.3415     3.7632    -0.8997 H       
  28 H28            2.8166     5.2047     0.0031 H       
@<TRIPOS>BOND
   1    1    2 1
   2    1    7 1
   3    1   10 1
   4    1   11 1
   5    2    3 1
   6    2   12 1
   7    2   13 1
   8    3    4 1
   9    3   14 1
  10    3   15 1
  11    4    5 1
  12    4   16 1
  13    4   17 1
  14    5    8 1
  15    5   18 1
  16    5   19 1
  17    6    7 1
  18    6    9 1
  19    6   20 1
  20    6   21 1
  21    7   22 1
  22    7   23 1
  23    8   24 1
  24    8   25 1
  25    9   26 1
  26    9   27 1
  27    9   28 1

#	End of record

