#	Name: ASD08178149
#	Creating user name:	WinNT
#	Creation time:	15. 06. 2019 21:18

#	Modifying user name:	WinNT
#	Modification time:	15. 06. 2019 21:18

#	Program:	/corina/corina34_cracker 3.40 0067  02.08.2006

@<TRIPOS>MOLECULE
ASD08178149
  46   48    0    0    0
SMALL
NO_CHARGES


@<TRIPOS>ATOM
   1 C1            -0.0184     1.5028     0.0103 C.ar    
   2 C2             0.0021    -0.0041     0.0020 C.3     
   3 C3            -0.8070    -0.5316     1.1886 C.3     
   4 C4            -0.7862    -2.0615     1.1802 C.3     
   5 C5            -1.5953    -2.5890     2.3668 C.3     
   6 C6            -1.5749    -4.0958     2.3585 C.2     
   7 N7            -0.7024    -4.8513     2.9464 N.2     
   8 N8            -0.8584    -6.0978     2.8208 N.2     
   9 C9            -1.8706    -6.5111     2.1196 C.2     
  10 S10           -2.7393    -5.1477     1.5527 S.3     
  11 N11           -2.1982    -7.8403     1.8745 N.am    
  12 C12           -1.4351    -8.8275     2.3840 C.2     
  13 C13           -1.7900   -10.2678     2.1183 C.3     
  14 O14           -0.4626    -8.5566     3.0562 O.2     
  15 C15           -0.7862   -11.1655     2.7946 C.ar    
  16 C16            1.1740     2.2128     0.0027 C.ar    
  17 C17            1.1080     3.5972     0.0108 C.ar    
  18 C18           -0.1538     4.1904     0.0260 C.ar    
  19 N19           -1.2375     3.4277     0.0323 N.ar    
  20 N20           -1.1689     2.1461     0.0193 N.ar    
  21 N21           -0.2744     5.5756     0.0351 N.pl3   
  22 C22           -1.0036   -11.5921     4.0914 C.ar    
  23 C23           -0.0828   -12.4156     4.7117 C.ar    
  24 C24            1.0554   -12.8128     4.0351 C.ar    
  25 C25            1.2724   -12.3869     2.7380 C.ar    
  26 C26            0.3494   -11.5669     2.1162 C.ar    
  27 H27           -0.4361    -0.3683    -0.9272 H       
  28 H28            1.0315    -0.3539     0.0799 H       
  29 H29           -0.3688    -0.1674     2.1178 H       
  30 H30           -1.8364    -0.1818     1.1107 H       
  31 H31           -1.2245    -2.4257     0.2510 H       
  32 H32            0.2431    -2.4113     1.2581 H       
  33 H33           -1.1571    -2.2248     3.2960 H       
  34 H34           -2.6247    -2.2392     2.2889 H       
  35 H35           -2.9760    -8.0569     1.3368 H       
  36 H36           -2.7854   -10.4751     2.5111 H       
  37 H37           -1.7775   -10.4529     1.0442 H       
  38 H38            2.1253     1.7016    -0.0087 H       
  39 H39            2.0057     4.1976     0.0058 H       
  40 H40            0.5204     6.1317     0.0308 H       
  41 H41           -1.1533     5.9859     0.0457 H       
  42 H42           -1.8929   -11.2818     4.6199 H       
  43 H43           -0.2524   -12.7483     5.7251 H       
  44 H44            1.7752   -13.4555     4.5200 H       
  45 H45            2.1618   -12.6969     2.2096 H       
  46 H46            0.5190   -11.2342     1.1028 H       
@<TRIPOS>BOND
   1    1    2 1
   2    1   16 ar
   3    1   20 ar
   4    2    3 1
   5    2   27 1
   6    2   28 1
   7    3    4 1
   8    3   29 1
   9    3   30 1
  10    4    5 1
  11    4   31 1
  12    4   32 1
  13    5    6 1
  14    5   33 1
  15    5   34 1
  16    6    7 2
  17    6   10 1
  18    7    8 1
  19    8    9 2
  20    9   10 1
  21    9   11 1
  22   11   12 am
  23   11   35 1
  24   12   13 1
  25   12   14 2
  26   13   15 1
  27   13   36 1
  28   13   37 1
  29   15   22 ar
  30   15   26 ar
  31   16   17 ar
  32   16   38 1
  33   17   18 ar
  34   17   39 1
  35   18   19 ar
  36   18   21 1
  37   19   20 ar
  38   21   40 1
  39   21   41 1
  40   22   23 ar
  41   22   42 1
  42   23   24 ar
  43   23   43 1
  44   24   25 ar
  45   24   44 1
  46   25   26 ar
  47   25   45 1
  48   26   46 1

#	End of record

