#	Name: ASD02690020
#	Creating user name:	WinNT
#	Creation time:	15. 06. 2019 20:26

#	Modifying user name:	WinNT
#	Modification time:	15. 06. 2019 20:26

#	Program:	/corina/corina34_cracker 3.40 0067  02.08.2006

@<TRIPOS>MOLECULE
ASD02690020
  66   68    0    0    0
SMALL
NO_CHARGES


@<TRIPOS>ATOM
   1 C1            -0.4830     1.8382    -0.9440 C.3     
   2 N2            -0.3713     0.4042    -0.6482 N.3     
   3 C3             0.4364    -0.2857    -1.6621 C.3     
   4 C4             1.8554     0.2874    -1.6623 C.3     
   5 C5             1.7949     1.7871    -1.9650 C.3     
   6 C6             0.9085     2.4748    -0.9229 C.3     
   7 C7             4.7903     4.1322    -2.6088 C.ar    
   8 C8             3.5004     3.5895    -2.6605 C.ar    
   9 C9             3.1838     2.3690    -1.9076 C.2     
  10 C10            5.0805     5.2723    -3.3132 C.ar    
  11 C11            4.0964     5.8897    -4.0778 C.ar    
  12 C12            2.8138     5.3545    -4.1329 C.ar    
  13 C13            2.5132     4.2149    -3.4322 C.ar    
  14 C14           -1.6987    -0.2125    -0.5235 C.3     
  15 C15           -1.5427    -1.7175    -0.2833 C.3     
  16 N16           -2.8695    -2.2962    -0.0317 N.am    
  17 C17           -3.7078    -1.7096     1.0227 C.3     
  18 C18           -3.8395    -0.2048     0.7679 C.3     
  19 C19           -2.4441     0.4139     0.6572 C.3     
  20 C20           -3.3095    -3.3450    -0.7548 C.2     
  21 C21           -4.5891    -3.9786    -0.4233 C.2     
  22 S22           -5.3504    -3.9718     1.1616 S.3     
  23 O23           -1.7176     0.1686     1.8631 O.3     
  24 O24            4.0403     1.8292    -1.2395 O.2     
  25 O25            4.3885     7.0177    -4.7725 O.3     
  26 C26            3.3315     7.6007    -5.5373 C.3     
  27 O27           -2.6444    -3.7661    -1.6830 O.2     
  28 C28           -5.3843    -4.6642    -1.2979 C.2     
  29 C29           -6.5310    -5.1551    -0.7200 C.2     
  30 C30           -6.6730    -4.8804     0.5820 C.2     
  31 H31           -0.9287     1.9721    -1.9297 H       
  32 H32           -1.1124     2.3160    -0.1932 H       
  33 H33            0.4749    -1.3506    -1.4327 H       
  34 H34           -0.0135    -0.1420    -2.6444 H       
  35 H35            2.3110     0.1316    -0.6844 H       
  36 H36            2.4503    -0.2142    -2.4256 H       
  37 H37            1.3751     1.9414    -2.9590 H       
  38 H38            0.8269     3.5360    -1.1579 H       
  39 H39            1.3492     2.3534     0.0667 H       
  40 H40            5.5539     3.6562    -2.0116 H       
  41 H41            6.0750     5.6916    -3.2741 H       
  42 H42            2.0530     5.8382    -4.7275 H       
  43 H43            1.5170     3.8001    -3.4756 H       
  44 H44           -2.2643    -0.0472    -1.4405 H       
  45 H45           -1.1014    -2.1842    -1.1639 H       
  46 H46           -0.9011    -1.8848     0.5819 H       
  47 H47           -4.6951    -2.1712     1.0038 H       
  48 H48           -3.2428    -1.8763     1.9943 H       
  49 H49           -4.3855    -0.0395    -0.1610 H       
  50 H50           -4.3784     0.2584     1.5944 H       
  51 H51           -2.5348     1.4887     0.5003 H       
  52 H52           -2.1322     0.5391     2.6543 H       
  53 H53            2.5091     7.8697    -4.8744 H       
  54 H54            3.6985     8.4943    -6.0422 H       
  55 H55            2.9807     6.8827    -6.2786 H       
  56 H56           -5.1367    -4.8062    -2.3395 H       
  57 H57           -7.2644    -5.7198    -1.2764 H       
  58 H58           -7.5131    -5.1916     1.1851 H       
  59 C59           12.3744    17.6056     7.6682 C.1     
  60 C60           12.3903    16.4317     7.6617 C.1     
  61 O61           12.3560    18.9604     7.6756 O.3     
  62 O62           12.4087    15.0769     7.6543 O.3     
  63 O63           13.6897    19.5761     7.6662 O.3     
  64 O64           11.0750    14.4612     7.6637 O.3     
  65 H65           13.6766    20.5430     7.6715 H       
  66 H66           11.0881    13.4943     7.6584 H       
@<TRIPOS>BOND
   1    1    2 1
   2    1    6 1
   3    1   31 1
   4    1   32 1
   5    2    3 1
   6    2   14 1
   7    3    4 1
   8    3   33 1
   9    3   34 1
  10    4    5 1
  11    4   35 1
  12    4   36 1
  13    5    6 1
  14    5    9 1
  15    5   37 1
  16    6   38 1
  17    6   39 1
  18    7    8 ar
  19    7   10 ar
  20    7   40 1
  21    8    9 1
  22    8   13 ar
  23    9   24 2
  24   10   11 ar
  25   10   41 1
  26   11   12 ar
  27   11   25 1
  28   12   13 ar
  29   12   42 1
  30   13   43 1
  31   14   15 1
  32   14   19 1
  33   14   44 1
  34   15   16 1
  35   15   45 1
  36   15   46 1
  37   16   17 1
  38   16   20 am
  39   17   18 1
  40   17   47 1
  41   17   48 1
  42   18   19 1
  43   18   49 1
  44   18   50 1
  45   19   23 1
  46   19   51 1
  47   20   21 1
  48   20   27 2
  49   21   28 2
  50   21   22 1
  51   22   30 1
  52   23   52 1
  53   25   26 1
  54   26   53 1
  55   26   54 1
  56   26   55 1
  57   28   29 1
  58   28   56 1
  59   29   30 2
  60   29   57 1
  61   30   58 1
  62   59   60 3
  63   59   61 1
  64   60   62 1
  65   61   63 1
  66   62   64 1
  67   63   65 1
  68   64   66 1

#	End of record

