#	Name: ASD01030009
#	Creating user name:	WinNT
#	Creation time:	15. 06. 2019 18:58

#	Modifying user name:	WinNT
#	Modification time:	15. 06. 2019 18:58

#	Program:	/corina/corina34_cracker 3.40 0067  02.08.2006

@<TRIPOS>MOLECULE
ASD01030009
  19   19    0    0    0
SMALL
NO_CHARGES


@<TRIPOS>ATOM
   1 S1            -0.0172     1.4168     0.0098 S.o2    
   2 O2             0.0021    -0.0041     0.0020 O.2     
   3 O3             1.1617     2.2101     0.0028 O.2     
   4 O4            -0.8288     1.8423    -1.2054 O.3     
   5 O5            -0.8054     1.8291     1.2448 O.3     
   6 C6            -0.7944     3.1781    -1.4529 C.ar    
   7 C7             0.1878     3.7069    -2.2776 C.ar    
   8 C8             0.2203     5.0651    -2.5280 C.ar    
   9 C9            -0.7248     5.8973    -1.9571 C.ar    
  10 C10           -1.7048     5.3727    -1.1348 C.ar    
  11 C11           -1.7450     4.0145    -0.8858 C.ar    
  12 N12           -0.6872     7.3522    -2.2263 N.pl3   
  13 O13            0.1759     7.8155    -2.9502 O.2     
  14 O14           -1.5192     8.0862    -1.7238 O.2     
  15 H15           -0.3741     1.6030     2.0803 H       
  16 H16            0.9267     3.0574    -2.7233 H       
  17 H17            0.9847     5.4773    -3.1700 H       
  18 H18           -2.4417     6.0249    -0.6897 H       
  19 H19           -2.5131     3.6047    -0.2467 H       
@<TRIPOS>BOND
   1    1    2 2
   2    1    3 2
   3    1    4 1
   4    1    5 1
   5    4    6 1
   6    5   15 1
   7    6    7 ar
   8    6   11 ar
   9    7    8 ar
  10    7   16 1
  11    8    9 ar
  12    8   17 1
  13    9   10 ar
  14    9   12 1
  15   10   11 ar
  16   10   18 1
  17   11   19 1
  18   12   13 2
  19   12   14 2

#	End of record

