#	Name: ASD02508251
#	Creating user name:	WinNT
#	Creation time:	15. 06. 2019 20:24

#	Modifying user name:	WinNT
#	Modification time:	15. 06. 2019 20:24

#	Program:	/corina/corina34_cracker 3.40 0067  02.08.2006

@<TRIPOS>MOLECULE
ASD02508251
  43   45    0    0    0
SMALL
NO_CHARGES


@<TRIPOS>ATOM
   1 C1             0.4314     1.0758     1.0432 C.ar    
   2 C2             0.3189    -0.2160     0.5297 C.ar    
   3 C3            -0.9344    -0.7882     0.3769 C.ar    
   4 C4            -2.0641    -0.0778     0.7331 C.ar    
   5 C5            -1.9514     1.2044     1.2422 C.ar    
   6 C6            -0.7065     1.7807     1.4032 C.ar    
   7 S7            -3.6562    -0.8069     0.5380 S.o2    
   8 N8            -3.9552    -1.7027     1.8983 N.am    
   9 C9            -3.1226    -2.7756     2.2249 C.ar    
  10 N10            1.7934     1.3733     1.0787 N.am    
  11 C11            2.4552     0.2990     0.6049 C.2     
  12 O12            1.5745    -0.6583     0.2738 O.3     
  13 O13           -4.5915     0.2628     0.5484 O.2     
  14 O14           -3.5452    -1.7318    -0.5351 O.2     
  15 C15            2.3950     2.6248     1.5456 C.3     
  16 O16            3.6629     0.2107     0.4944 O.2     
  17 C17           -2.6622    -2.9281     3.5266 C.ar    
  18 C18           -2.7581    -3.6955     1.2501 C.ar    
  19 C19           -1.9350    -4.7559     1.5759 C.ar    
  20 C20           -1.4740    -4.9030     2.8709 C.ar    
  21 C21           -1.8389    -3.9910     3.8463 C.ar    
  22 C22            2.6698     3.5365     0.3481 C.3     
  23 Cl23          -1.2577    -4.1798     5.4712 Cl      
  24 C24           -0.5863     3.1766     1.9582 C.3     
  25 O25            1.4316     3.9148    -0.2567 O.3     
  26 C26            1.5767     4.7715    -1.3912 C.3     
  27 H27           -1.0274    -1.7881    -0.0206 H       
  28 H28           -2.8391     1.7542     1.5179 H       
  29 H29           -4.7085    -1.4824     2.4683 H       
  30 H30            1.7103     3.1231     2.2320 H       
  31 H31            3.3313     2.4082     2.0599 H       
  32 H32           -2.9468    -2.2166     4.2876 H       
  33 H33           -3.1182    -3.5819     0.2383 H       
  34 H34           -1.6515    -5.4712     0.8180 H       
  35 H35           -0.8309    -5.7332     3.1229 H       
  36 H36            3.1975     4.4290     0.6844 H       
  37 H37            3.2825     3.0050    -0.3801 H       
  38 H38           -0.4957     3.1296     3.0435 H       
  39 H39            0.2974     3.6589     1.5404 H       
  40 H40           -1.4737     3.7510     1.6923 H       
  41 H41            0.5924     5.0128    -1.7925 H       
  42 H42            2.0816     5.6896    -1.0909 H       
  43 H43            2.1666     4.2657    -2.1554 H       
@<TRIPOS>BOND
   1    1    2 ar
   2    1   10 1
   3    1    6 ar
   4    2    3 ar
   5    2   12 1
   6    3    4 ar
   7    3   27 1
   8    4    5 ar
   9    4    7 1
  10    5    6 ar
  11    5   28 1
  12    6   24 1
  13    7    8 am
  14    7   13 2
  15    7   14 2
  16    8    9 1
  17    8   29 1
  18    9   17 ar
  19    9   18 ar
  20   10   11 am
  21   10   15 1
  22   11   12 1
  23   11   16 2
  24   15   22 1
  25   15   30 1
  26   15   31 1
  27   17   21 ar
  28   17   32 1
  29   18   19 ar
  30   18   33 1
  31   19   20 ar
  32   19   34 1
  33   20   21 ar
  34   20   35 1
  35   21   23 1
  36   22   25 1
  37   22   36 1
  38   22   37 1
  39   24   38 1
  40   24   39 1
  41   24   40 1
  42   25   26 1
  43   26   41 1
  44   26   42 1
  45   26   43 1

#	End of record

