#	Name: ASD03092550
#	Creating user name:	WinNT
#	Creation time:	15. 06. 2019 20:32

#	Modifying user name:	WinNT
#	Modification time:	15. 06. 2019 20:32

#	Program:	/corina/corina34_cracker 3.40 0067  02.08.2006

@<TRIPOS>MOLECULE
ASD03092550
  38   40    0    0    0
SMALL
NO_CHARGES


@<TRIPOS>ATOM
   1 O1            -0.0143     1.2047     0.0087 O.3     
   2 N2             0.0021    -0.0041     0.0020 N.2     
   3 C3             1.2152    -0.4747    -0.0121 C.2     
   4 C4             2.0809     0.6416    -0.0144 C.2     
   5 C5             1.2318     1.7144    -0.0005 C.2     
   6 C6             1.6061     3.1413     0.0029 C.2     
   7 O7             2.7788     3.4622    -0.0070 O.2     
   8 N8             0.6481     4.0892     0.0168 N.am    
   9 C9             1.0198     5.5063     0.0202 C.3     
  10 C10            1.2848     5.9606     1.4569 C.3     
  11 N11           -2.9943     8.7058    -2.2986 N.pl3   
  12 C12           -2.2167     9.5756    -3.0135 C.2     
  13 C13           -0.9192     9.2787    -2.8394 C.2     
  14 C14           -0.8611     8.1244    -1.9394 C.ar    
  15 C15            0.1797     7.3686    -1.3962 C.ar    
  16 C16           -0.1041     6.3218    -0.5654 C.ar    
  17 C17           -1.4196     6.0030    -0.2567 C.ar    
  18 C18           -2.4616     6.7349    -0.7819 C.ar    
  19 C19           -2.1958     7.8052    -1.6301 C.ar    
  20 C20           -2.7395    10.7001    -3.8699 C.3     
  21 F21            0.1288     5.7799     2.2239 F       
  22 F22            2.3281     5.2036     2.0005 F       
  23 F23            1.6397     7.3139     1.4601 F       
  24 C24            1.6179    -1.9268    -0.0230 C.3     
  25 H25            3.1608     0.6469    -0.0243 H       
  26 H26           -0.2875     3.8332     0.0247 H       
  27 H27            1.9205     5.6471    -0.5774 H       
  28 H28           -3.9635     8.7237    -2.2646 H       
  29 H29           -0.0778     9.7932    -3.2794 H       
  30 H30            1.2055     7.6102    -1.6325 H       
  31 H31           -1.6280     5.1726     0.4016 H       
  32 H32           -3.4816     6.4788    -0.5360 H       
  33 H33           -2.8293    11.6041    -3.2676 H       
  34 H34           -2.0496    10.8798    -4.6944 H       
  35 H35           -3.7179    10.4296    -4.2672 H       
  36 H36            1.7054    -2.2719    -1.0532 H       
  37 H37            2.5774    -2.0416     0.4813 H       
  38 H38            0.8622    -2.5173     0.4950 H       
@<TRIPOS>BOND
   1    1    2 1
   2    1    5 1
   3    2    3 2
   4    3    4 1
   5    3   24 1
   6    4    5 2
   7    4   25 1
   8    5    6 1
   9    6    7 2
  10    6    8 am
  11    8    9 1
  12    8   26 1
  13    9   10 1
  14    9   16 1
  15    9   27 1
  16   10   21 1
  17   10   22 1
  18   10   23 1
  19   11   12 1
  20   11   19 1
  21   11   28 1
  22   12   13 2
  23   12   20 1
  24   13   14 1
  25   13   29 1
  26   14   15 ar
  27   14   19 ar
  28   15   16 ar
  29   15   30 1
  30   16   17 ar
  31   17   18 ar
  32   17   31 1
  33   18   19 ar
  34   18   32 1
  35   20   33 1
  36   20   34 1
  37   20   35 1
  38   24   36 1
  39   24   37 1
  40   24   38 1

#	End of record

