#	Name: ASD05430695
#	Creating user name:	WinNT
#	Creation time:	15. 06. 2019 21:00

#	Modifying user name:	WinNT
#	Modification time:	15. 06. 2019 21:00

#	Program:	/corina/corina34_cracker 3.40 0067  02.08.2006

@<TRIPOS>MOLECULE
ASD05430695
  30   30    0    0    0
SMALL
NO_CHARGES


@<TRIPOS>ATOM
   1 C1            -0.0167     1.3784     0.0096 C.ar    
   2 C2             0.0021    -0.0041     0.0020 C.ar    
   3 C3            -1.1841    -0.7121     0.0091 C.ar    
   4 C4            -2.4107     1.3522     0.0439 C.ar    
   5 C5            -1.2219     2.0557     0.0305 C.ar    
   6 C6             1.2788     2.1484     0.0014 C.3     
   7 C7            -2.3948    -0.0349     0.0243 C.ar    
   8 C8             2.0737     1.7956    -1.2574 C.3     
   9 C9             0.9803     3.6489     0.0123 C.3     
  10 C10            2.0976     1.7822     1.2409 C.3     
  11 O11           -3.5629    -0.7293     0.0374 O.3     
  12 S12           -4.1728    -1.0532    -1.4722 Du      
  13 F13           -4.7643    -1.3673    -2.9362 F       
  14 F14           -4.4764    -2.5695    -1.0242 F       
  15 F15           -5.6391    -0.6125    -0.9743 F       
  16 F16           -2.7065    -1.4938    -1.9700 F       
  17 F17           -3.8692     0.4632    -1.9202 F       
  18 H18            0.9448    -0.5308    -0.0098 H       
  19 H19           -1.1689    -1.7920     0.0024 H       
  20 H20           -3.3519     1.8817     0.0602 H       
  21 H21           -1.2338     3.1355     0.0461 H       
  22 H22            1.4904     2.0565    -2.1405 H       
  23 H23            3.0107     2.3525    -1.2634 H       
  24 H24            2.2863     0.7266    -1.2652 H       
  25 H25            0.4140     3.9002     0.9091 H       
  26 H26            1.9173     4.2058     0.0063 H       
  27 H27            0.3970     3.9098    -0.8708 H       
  28 H28            2.3102     0.7132     1.2331 H       
  29 H29            3.0346     2.3391     1.2350 H       
  30 H30            1.5312     2.0335     2.1377 H       
@<TRIPOS>BOND
   1    1    2 ar
   2    1    6 1
   3    1    5 ar
   4    2    3 ar
   5    2   18 1
   6    3    7 ar
   7    3   19 1
   8    4    5 ar
   9    4    7 ar
  10    4   20 1
  11    5   21 1
  12    6    8 1
  13    6    9 1
  14    6   10 1
  15    7   11 1
  16    8   22 1
  17    8   23 1
  18    8   24 1
  19    9   25 1
  20    9   26 1
  21    9   27 1
  22   10   28 1
  23   10   29 1
  24   10   30 1
  25   11   12 1
  26   12   13 1
  27   12   14 1
  28   12   15 1
  29   12   16 1
  30   12   17 1

#	End of record

