#	Name: ASD04590562
#	Creating user name:	WinNT
#	Creation time:	15. 06. 2019 20:51

#	Modifying user name:	WinNT
#	Modification time:	15. 06. 2019 20:51

#	Program:	/corina/corina34_cracker 3.40 0067  02.08.2006

@<TRIPOS>MOLECULE
ASD04590562
  66   71    0    0    0
SMALL
NO_CHARGES


@<TRIPOS>ATOM
   1 N1             2.2553     1.5391    -0.0771 N.ar    
   2 C2             2.4205     0.2209    -0.0674 C.ar    
   3 C3             1.3246    -0.6095    -0.0618 C.ar    
   4 C4             0.0458    -0.0568    -0.0855 C.ar    
   5 C5            -0.0881     1.3177    -0.1024 C.ar    
   6 C6             1.0612     2.1016    -0.0944 C.ar    
   7 C7             3.8347    -0.2998    -0.0799 C.3     
   8 C8             3.8880    -1.7411     0.4237 C.3     
   9 N9             2.8352    -2.5033    -0.2679 N.am    
  10 C10            1.4442    -2.1110    -0.0160 C.3     
  11 N11            0.9512     3.4892    -0.1048 N.pl3   
  12 C12            2.0866     4.2750     0.0096 C.ar    
  13 N13            1.9684     5.5878    -0.1052 N.ar    
  14 C14            3.0349     6.3751    -0.0014 C.ar    
  15 C15            4.2901     5.7784     0.2332 C.ar    
  16 C16            4.3647     4.3937     0.3466 C.ar    
  17 N17            3.2532     3.6850     0.2356 N.ar    
  18 N18            3.2082     7.7350    -0.0753 N.pl3   
  19 C19            4.5411     8.0631     0.1028 C.ar    
  20 C20            5.2656     6.8740     0.3004 C.ar    
  21 C21            5.2305     9.2687     0.1185 C.ar    
  22 N22            6.5331     9.2934     0.3140 N.ar    
  23 C23            7.2427     8.1948     0.5026 C.ar    
  24 C24            6.6427     6.9535     0.5040 C.ar    
  25 C25            2.1337     8.7027    -0.3105 C.3     
  26 C26            1.0941     8.5919     0.8065 C.3     
  27 C27           -0.0280     9.6026     0.5609 C.3     
  28 C28           -0.6929     9.3092    -0.7855 C.3     
  29 C29            0.3467     9.4199    -1.9026 C.3     
  30 C30            1.4689     8.4093    -1.6569 C.3     
  31 C31            3.1373    -3.5201    -1.0993 C.2     
  32 C32            2.0361    -4.3598    -1.6937 C.3     
  33 O33            4.2952    -3.7594    -1.3690 O.2     
  34 C34           -1.8150    10.3198    -1.0311 C.3     
  35 C35            4.3783    -0.2456    -1.5090 C.3     
  36 H36           -0.8268    -0.6931    -0.0909 H       
  37 H37           -1.0662     1.7752    -0.1215 H       
  38 H38            4.4533     0.3273     0.5621 H       
  39 H39            4.8632    -2.1737     0.2003 H       
  40 H40            3.7122    -1.7624     1.4992 H       
  41 H41            1.1386    -2.4695     0.9670 H       
  42 H42            0.7999    -2.5497    -0.7779 H       
  43 H43            0.0797     3.9060    -0.1921 H       
  44 H44            5.3119     3.9068     0.5259 H       
  45 H45            4.6940    10.1940    -0.0311 H       
  46 H46            8.3087     8.2704     0.6581 H       
  47 H47            7.2285     6.0594     0.6584 H       
  48 H48            2.5486     9.7106    -0.3222 H       
  49 H49            0.6793     7.5841     0.8181 H       
  50 H50            1.5678     8.8010     1.7657 H       
  51 H51           -0.7687     9.5237     1.3567 H       
  52 H52            0.3868    10.6105     0.5493 H       
  53 H53           -1.1078     8.3013    -0.7739 H       
  54 H54           -0.1269     9.2109    -2.8618 H       
  55 H55            0.7616    10.4278    -1.9142 H       
  56 H56            2.2095     8.4882    -2.4527 H       
  57 H57            1.0540     7.4014    -1.6453 H       
  58 H58            1.0690    -3.9456    -1.4087 H       
  59 H59            2.1254    -4.3599    -2.7801 H       
  60 H60            2.1174    -5.3814    -1.3225 H       
  61 H61           -1.4002    11.3277    -1.0428 H       
  62 H62           -2.2887    10.1108    -1.9903 H       
  63 H63           -2.5557    10.2409    -0.2353 H       
  64 H64            4.3648     0.7848    -1.8641 H       
  65 H65            5.4013    -0.6214    -1.5231 H       
  66 H66            3.7559    -0.8617    -2.1580 H       
@<TRIPOS>BOND
   1    1    2 ar
   2    1    6 ar
   3    2    3 ar
   4    2    7 1
   5    3    4 ar
   6    3   10 1
   7    4    5 ar
   8    4   36 1
   9    5    6 ar
  10    5   37 1
  11    6   11 1
  12    7    8 1
  13    7   35 1
  14    7   38 1
  15    8    9 1
  16    8   39 1
  17    8   40 1
  18    9   10 1
  19    9   31 am
  20   10   41 1
  21   10   42 1
  22   11   12 1
  23   11   43 1
  24   12   13 ar
  25   12   17 ar
  26   13   14 ar
  27   14   15 ar
  28   14   18 1
  29   15   16 ar
  30   15   20 1
  31   16   17 ar
  32   16   44 1
  33   18   19 1
  34   18   25 1
  35   19   20 ar
  36   19   21 ar
  37   20   24 ar
  38   21   22 ar
  39   21   45 1
  40   22   23 ar
  41   23   24 ar
  42   23   46 1
  43   24   47 1
  44   25   26 1
  45   25   30 1
  46   25   48 1
  47   26   27 1
  48   26   49 1
  49   26   50 1
  50   27   28 1
  51   27   51 1
  52   27   52 1
  53   28   29 1
  54   28   34 1
  55   28   53 1
  56   29   30 1
  57   29   54 1
  58   29   55 1
  59   30   56 1
  60   30   57 1
  61   31   32 1
  62   31   33 2
  63   32   58 1
  64   32   59 1
  65   32   60 1
  66   34   61 1
  67   34   62 1
  68   34   63 1
  69   35   64 1
  70   35   65 1
  71   35   66 1

#	End of record

