#	Name: ASD01881451
#	Creating user name:	WinNT
#	Creation time:	15. 06. 2019 19:42

#	Modifying user name:	WinNT
#	Modification time:	15. 06. 2019 19:42

#	Program:	/corina/corina34_cracker 3.40 0067  02.08.2006

@<TRIPOS>MOLECULE
ASD01881451
  53   57    0    0    0
SMALL
NO_CHARGES


@<TRIPOS>ATOM
   1 C1             0.1592     1.4570     0.0151 C.3     
   2 C2            -1.7411    -4.2734    -3.2044 C.3     
   3 C3             1.1270     1.3346     4.0951 C.ar    
   4 C4             1.0992     0.6624     2.8911 C.ar    
   5 C5             0.0086     1.3370     4.9169 C.ar    
   6 C6            -1.1442     0.6617     4.5293 C.ar    
   7 C7            -1.1779    -0.0127     3.3257 C.ar    
   8 C8            -0.0543    -0.0159     2.4985 C.ar    
   9 C9            -0.0867    -0.7382     1.2054 C.2     
  10 C10            0.0151    -0.0431     0.0149 C.2     
  11 C11           -0.2163    -2.1483     1.1770 C.2     
  12 C12           -0.2446    -2.8027     0.0010 C.2     
  13 N13           -0.1504    -2.1238    -1.1797 N.pl3   
  14 C14           -0.0183    -0.7561    -1.1954 C.2     
  15 C15           -0.1508    -2.5119    -2.4850 C.2     
  16 N16           -0.0324    -1.4343    -3.2166 N.2     
  17 N17            0.0478    -0.3917    -2.4669 N.2     
  18 C18           -0.2660    -3.9258    -2.9938 C.3     
  19 F19           -2.2309     0.6652     5.3319 F       
  20 O20            0.0396     2.0004     6.1024 O.3     
  21 C21            0.3711     1.2984     7.2177 C.ar    
  22 C22            0.4873     1.9383     8.4432 C.ar    
  23 C23            0.5932    -0.0737     7.1481 C.ar    
  24 N24            0.8086     1.2612     9.5278 N.ar    
  25 C25            1.0309    -0.0380     9.4950 C.ar    
  26 C26            0.9288    -0.7460     8.3118 C.ar    
  27 C27           -2.0643    -5.6311    -3.8313 C.3     
  28 C28           -2.3331    -5.3917    -2.3442 C.3     
  29 C29            1.3952    -0.7621    10.7655 C.3     
  30 C30            0.2441     3.4227     8.5354 C.3     
  31 H31            1.2164     1.7204     0.0452 H       
  32 H32           -0.2914     1.8654    -0.8895 H       
  33 H33           -0.3433     1.8701     0.8897 H       
  34 H34           -2.3902    -3.4350    -3.4570 H       
  35 H35            2.0219     1.8561     4.4010 H       
  36 H36            1.9702     0.6617     2.2525 H       
  37 H37           -2.0726    -0.5373     3.0246 H       
  38 H38           -0.2923    -2.7004     2.1021 H       
  39 H39           -0.3434    -3.8781    -0.0086 H       
  40 H40            0.1682    -4.6106    -2.2653 H       
  41 H41            0.2672    -4.0159    -3.9401 H       
  42 H42            0.5058    -0.6014     6.2099 H       
  43 H43            1.1123    -1.8102     8.2944 H       
  44 H44           -2.9264    -5.6861    -4.4960 H       
  45 H45           -1.2262    -6.2767    -4.0936 H       
  46 H46           -1.6718    -5.8797    -1.6283 H       
  47 H47           -3.3720    -5.2891    -2.0307 H       
  48 H48            0.4876    -1.1116    11.2575 H       
  49 H49            2.0312    -1.6148    10.5281 H       
  50 H50            1.9303    -0.0835    11.4297 H       
  51 H51           -0.8101     3.6060     8.7433 H       
  52 H52            0.8508     3.8411     9.3385 H       
  53 H53            0.5157     3.8947     7.5912 H       
@<TRIPOS>BOND
   1    1   10 1
   2    1   31 1
   3    1   32 1
   4    1   33 1
   5    2   27 1
   6    2   18 1
   7    2   28 1
   8    2   34 1
   9    3    4 ar
  10    3    5 ar
  11    3   35 1
  12    4    8 ar
  13    4   36 1
  14    5    6 ar
  15    5   20 1
  16    6    7 ar
  17    6   19 1
  18    7    8 ar
  19    7   37 1
  20    8    9 1
  21    9   10 2
  22    9   11 1
  23   10   14 1
  24   11   12 2
  25   11   38 1
  26   12   13 1
  27   12   39 1
  28   13   14 1
  29   13   15 1
  30   14   17 2
  31   15   16 2
  32   15   18 1
  33   16   17 1
  34   18   40 1
  35   18   41 1
  36   20   21 1
  37   21   22 ar
  38   21   23 ar
  39   22   24 ar
  40   22   30 1
  41   23   26 ar
  42   23   42 1
  43   24   25 ar
  44   25   26 ar
  45   25   29 1
  46   26   43 1
  47   27   28 1
  48   27   44 1
  49   27   45 1
  50   28   46 1
  51   28   47 1
  52   29   48 1
  53   29   49 1
  54   29   50 1
  55   30   51 1
  56   30   52 1
  57   30   53 1

#	End of record

