#	Name: ASD04882219
#	Creating user name:	WinNT
#	Creation time:	15. 06. 2019 20:54

#	Modifying user name:	WinNT
#	Modification time:	15. 06. 2019 20:54

#	Program:	/corina/corina34_cracker 3.40 0067  02.08.2006

@<TRIPOS>MOLECULE
ASD04882219
  92   96    0    0    0
SMALL
NO_CHARGES


@<TRIPOS>ATOM
   1 C1             0.1258     1.4840    -0.4332 C.2     
   2 C2             0.1460     0.0187    -0.4838 C.2     
   3 N3             1.1860    -0.6594     0.0406 N.am    
   4 C4             1.1515    -2.0587     0.0999 C.ar    
   5 C5             2.3302    -2.7944    -0.0510 C.ar    
   6 C6             2.2974    -4.1830     0.0076 C.ar    
   7 C7             1.1041    -4.8386     0.2150 C.ar    
   8 C8            -0.0782    -4.1089     0.3672 C.ar    
   9 C9            -0.0473    -2.7126     0.3134 C.ar    
  10 N10            3.5390    -2.1357    -0.2608 N.3     
  11 C11            3.5457    -1.4484    -1.5598 C.3     
  12 C12            4.6713    -3.0665    -0.1549 C.3     
  13 C13            5.9817    -2.2915    -0.3123 C.3     
  14 N14            5.9884    -1.6042    -1.6112 N.3     
  15 C15            4.8561    -0.6735    -1.7171 C.3     
  16 C16            7.2008    -0.9435    -1.8217 C.ar    
  17 C17            7.9953    -1.2770    -2.9110 C.ar    
  18 C18            7.6121     0.0528    -0.9450 C.ar    
  19 C19            8.8114     0.7039    -1.1560 C.ar    
  20 C20            9.6026     0.3657    -2.2388 C.ar    
  21 C21            9.1937    -0.6217    -3.1162 C.ar    
  22 C22           -1.3564    -4.8114     0.5887 C.2     
  23 N23           -1.3846    -6.1578     0.6445 N.am    
  24 O24           -2.3846    -4.1758     0.7210 O.2     
  25 O25           -0.7765    -0.5852    -0.9993 O.2     
  26 O26            1.0791     2.2718     0.1059 O.3     
  27 C27            0.7234     3.5560    -0.0292 C.2     
  28 C28           -0.4701     3.6125    -0.6605 C.2     
  29 C29           -0.8584     2.2905    -0.9287 C.2     
  30 C30            1.5221     4.7426     0.4454 C.3     
  31 C31            7.5505    -2.3530    -3.8678 C.3     
  32 C32           -2.6539    -6.8554     0.8645 C.3     
  33 C33           -2.4089    -8.3655     0.8850 C.3     
  34 N34           -3.6817    -9.0651     1.1056 N.3     
  35 C35           -3.4589   -10.4933     1.3674 C.3     
  36 C36           -4.5946    -8.8672    -0.0281 C.3     
  37 C37           -5.9669    -9.4556     0.3166 C.3     
  38 N38           -5.7844   -10.8549     0.7312 N.am    
  39 C39           -4.7847   -11.1484     1.7693 C.3     
  40 C40           -6.5143   -11.8420     0.1750 C.2     
  41 O41           -6.3327   -13.1169     0.5680 O.3     
  42 O42           -7.3362   -11.5814    -0.6811 O.2     
  43 C43           -7.1535   -14.1279    -0.0742 C.3     
  44 C44           -6.8867   -14.1201    -1.5807 C.3     
  45 C45           -6.8080   -15.5042     0.4979 C.3     
  46 C46           -8.6308   -13.8247     0.1837 C.3     
  47 H47            1.9584    -0.1786     0.3769 H       
  48 H48            3.2097    -4.7489    -0.1100 H       
  49 H49            1.0819    -5.9174     0.2597 H       
  50 H50           -0.9593    -2.1461     0.4310 H       
  51 H51            3.4593    -2.1831    -2.3603 H       
  52 H52            2.7054    -0.7558    -1.6091 H       
  53 H53            4.6517    -3.5535     0.8200 H       
  54 H54            4.5977    -3.8195    -0.9395 H       
  55 H55            6.0681    -1.5569     0.4883 H       
  56 H56            6.8219    -2.9841    -0.2630 H       
  57 H57            4.8757    -0.1864    -2.6920 H       
  58 H58            4.9297     0.0796    -0.9325 H       
  59 H59            6.9944     0.3178    -0.0997 H       
  60 H60            9.1317     1.4784    -0.4749 H       
  61 H61           10.5397     0.8770    -2.4019 H       
  62 H62            9.8139    -0.8834    -3.9607 H       
  63 H63           -0.5644    -6.6648     0.5390 H       
  64 H64           -1.0196     4.5067    -0.9148 H       
  65 H65           -1.7637     1.9726    -1.4245 H       
  66 H66            2.4408     4.3962     0.9188 H       
  67 H67            1.7689     5.3781    -0.4051 H       
  68 H68            0.9344     5.3116     1.1657 H       
  69 H69            6.9594    -1.9065    -4.6674 H       
  70 H70            8.4251    -2.8448    -4.2936 H       
  71 H71            6.9452    -3.0860    -3.3344 H       
  72 H72           -3.0794    -6.5434     1.8183 H       
  73 H73           -3.3472    -6.6107     0.0599 H       
  74 H74           -1.9834    -8.6776    -0.0688 H       
  75 H75           -1.7156    -8.6103     1.6897 H       
  76 H76           -3.0747   -10.9725     0.4670 H       
  77 H77           -2.7373   -10.6066     2.1764 H       
  78 H78           -4.6966    -7.8011    -0.2312 H       
  79 H79           -4.1945    -9.3691    -0.9091 H       
  80 H80           -6.4145    -8.8875     1.1320 H       
  81 H81           -6.6134    -9.4148    -0.5600 H       
  82 H82           -4.6496   -12.2267     1.8532 H       
  83 H83           -5.1187   -10.7430     2.7244 H       
  84 H84           -5.8342   -14.3361    -1.7644 H       
  85 H85           -7.5029   -14.8791    -2.0628 H       
  86 H86           -7.1329   -13.1396    -1.9882 H       
  87 H87           -6.9980   -15.5098     1.5711 H       
  88 H88           -7.4242   -16.2632     0.0158 H       
  89 H89           -5.7555   -15.7202     0.3141 H       
  90 H90           -8.8770   -12.8442    -0.2238 H       
  91 H91           -9.2470   -14.5837    -0.2983 H       
  92 H92           -8.8209   -13.8303     1.2570 H       
@<TRIPOS>BOND
   1    1    2 1
   2    1   26 1
   3    1   29 2
   4    2    3 am
   5    2   25 2
   6    3    4 1
   7    3   47 1
   8    4    5 ar
   9    4    9 ar
  10    5    6 ar
  11    5   10 1
  12    6    7 ar
  13    6   48 1
  14    7    8 ar
  15    7   49 1
  16    8    9 ar
  17    8   22 1
  18    9   50 1
  19   10   11 1
  20   10   12 1
  21   11   15 1
  22   11   51 1
  23   11   52 1
  24   12   13 1
  25   12   53 1
  26   12   54 1
  27   13   14 1
  28   13   55 1
  29   13   56 1
  30   14   15 1
  31   14   16 1
  32   15   57 1
  33   15   58 1
  34   16   17 ar
  35   16   18 ar
  36   17   31 1
  37   17   21 ar
  38   18   19 ar
  39   18   59 1
  40   19   20 ar
  41   19   60 1
  42   20   21 ar
  43   20   61 1
  44   21   62 1
  45   22   23 am
  46   22   24 2
  47   23   32 1
  48   23   63 1
  49   26   27 1
  50   27   28 2
  51   27   30 1
  52   28   29 1
  53   28   64 1
  54   29   65 1
  55   30   66 1
  56   30   67 1
  57   30   68 1
  58   31   69 1
  59   31   70 1
  60   31   71 1
  61   32   33 1
  62   32   72 1
  63   32   73 1
  64   33   34 1
  65   33   74 1
  66   33   75 1
  67   34   35 1
  68   34   36 1
  69   35   39 1
  70   35   76 1
  71   35   77 1
  72   36   37 1
  73   36   78 1
  74   36   79 1
  75   37   38 1
  76   37   80 1
  77   37   81 1
  78   38   39 1
  79   38   40 am
  80   39   82 1
  81   39   83 1
  82   40   41 1
  83   40   42 2
  84   41   43 1
  85   43   44 1
  86   43   45 1
  87   43   46 1
  88   44   84 1
  89   44   85 1
  90   44   86 1
  91   45   87 1
  92   45   88 1
  93   45   89 1
  94   46   90 1
  95   46   91 1
  96   46   92 1

#	End of record

