#	Name: ASD02038008
#	Creating user name:	WinNT
#	Creation time:	15. 06. 2019 20:16

#	Modifying user name:	WinNT
#	Modification time:	15. 06. 2019 20:16

#	Program:	/corina/corina34_cracker 3.40 0067  02.08.2006

@<TRIPOS>MOLECULE
ASD02038008
  47   50    0    0    0
SMALL
NO_CHARGES


@<TRIPOS>ATOM
   1 C1             1.0545    -0.4258    -0.8060 C.ar    
   2 C2             0.0017    -0.0035    -0.0052 C.ar    
   3 N3            -1.2001    -0.7215     0.0092 N.am    
   4 C4            -2.7169    -4.1816    -0.0498 C.3     
   5 N5            -2.3312    -2.7636     0.0080 N.am    
   6 C6            -1.1838    -2.0648    -0.0999 C.2     
   7 C7            -5.2648    -4.5176     0.0844 C.3     
   8 O8            -6.4931    -4.0948    -0.5111 O.3     
   9 C9            -7.6302    -4.7013    -0.0777 C.ar    
  10 C10           -8.8574    -4.3384    -0.6139 C.ar    
  11 C11           -7.5623    -5.6865     0.8963 C.ar    
  12 C12           -8.7168    -6.3033     1.3373 C.ar    
  13 C13           -9.9453    -5.9366     0.8054 C.ar    
  14 C14          -10.0118    -4.9539    -0.1738 C.ar    
  15 N15          -11.1181    -6.5593     1.2501 N.am    
  16 C16          -12.2433    -6.4983     0.5148 C.2     
  17 C17          -12.2614    -5.7778    -0.8064 C.3     
  18 C18          -11.3469    -4.5575    -0.7486 C.3     
  19 O19           -0.1340    -2.6462    -0.2957 O.2     
  20 O20          -13.2546    -7.0304     0.9212 O.2     
  21 C21            0.1427     1.1317     0.7817 C.ar    
  22 C22            1.3295     1.8387     0.7665 C.ar    
  23 C23            2.3775     1.4168    -0.0318 C.ar    
  24 C24            2.2398     0.2847    -0.8179 C.ar    
  25 Cl25           3.8672     2.3080    -0.0488 Cl      
  26 C26           -3.7486    -2.4436     0.2345 C.3     
  27 C27           -4.1043    -3.7289    -0.5255 C.3     
  28 Cl28           3.5572    -0.2424    -1.8182 Cl      
  29 H29            0.9487    -1.3110    -1.4156 H       
  30 H30           -2.0444    -0.2523     0.0976 H       
  31 H31           -2.1658    -4.7512    -0.7982 H       
  32 H32           -2.7298    -4.6680     0.9256 H       
  33 H33           -5.3012    -4.3380     1.1588 H       
  34 H34           -5.1183    -5.5816    -0.1014 H       
  35 H35           -8.9094    -3.5742    -1.3753 H       
  36 H36           -6.6062    -5.9717     1.3098 H       
  37 H37           -8.6636    -7.0708     2.0953 H       
  38 H38          -11.1192    -7.0380     2.0938 H       
  39 H39          -11.9130    -6.4503    -1.5903 H       
  40 H40          -13.2792    -5.4587    -1.0308 H       
  41 H41          -11.7999    -3.7939    -0.1163 H       
  42 H42          -11.2074    -4.1603    -1.7540 H       
  43 H43           -0.6750     1.4620     1.4050 H       
  44 H44            1.4390     2.7219     1.3784 H       
  45 H45           -4.0364    -2.4671     1.2855 H       
  46 H46           -4.0749    -1.5353    -0.2722 H       
  47 H47           -4.1870    -3.6015    -1.6049 H       
@<TRIPOS>BOND
   1    1    2 ar
   2    1   24 ar
   3    1   29 1
   4    2   21 ar
   5    2    3 1
   6    3    6 am
   7    3   30 1
   8    4    5 1
   9    4   27 1
  10    4   31 1
  11    4   32 1
  12    5    6 am
  13    5   26 1
  14    6   19 2
  15    7    8 1
  16    7   27 1
  17    7   33 1
  18    7   34 1
  19    8    9 1
  20    9   10 ar
  21    9   11 ar
  22   10   14 ar
  23   10   35 1
  24   11   12 ar
  25   11   36 1
  26   12   13 ar
  27   12   37 1
  28   13   14 ar
  29   13   15 1
  30   14   18 1
  31   15   16 am
  32   15   38 1
  33   16   17 1
  34   16   20 2
  35   17   18 1
  36   17   39 1
  37   17   40 1
  38   18   41 1
  39   18   42 1
  40   21   22 ar
  41   21   43 1
  42   22   23 ar
  43   22   44 1
  44   23   24 ar
  45   23   25 1
  46   24   28 1
  47   26   27 1
  48   26   45 1
  49   26   46 1
  50   27   47 1

#	End of record

