#	Name: ASD00172057
#	Creating user name:	WinNT
#	Creation time:	15. 06. 2019 18:33

#	Modifying user name:	WinNT
#	Modification time:	15. 06. 2019 18:33

#	Program:	/corina/corina34_cracker 3.40 0067  02.08.2006

@<TRIPOS>MOLECULE
ASD00172057
  51   53    0    0    0
SMALL
NO_CHARGES


@<TRIPOS>ATOM
   1 C1            -0.0226     1.4346     0.1003 C.ar    
   2 C2             0.0093     0.0519     0.0815 C.ar    
   3 C3            -1.1715    -0.6664     0.0664 C.ar    
   4 C4            -2.3843    -0.0030     0.0701 C.ar    
   5 C5            -2.4168     1.3789     0.0889 C.ar    
   6 C6            -1.2365     2.0979     0.1093 C.ar    
   7 C7            -3.6715    -0.7866     0.0531 C.3     
   8 C8            -4.1138    -1.0720     1.4897 C.3     
   9 C9            -3.0748    -1.9069     2.2117 C.2     
  10 N10           -3.6976    -3.0542     2.5462 N.am    
  11 C11           -4.9724    -3.0603     2.1402 C.2     
  12 N12           -5.3140    -1.9261     1.5025 N.am    
  13 O13           -5.7363    -3.9870     2.3263 O.2     
  14 C14           -6.6243    -1.6030     0.9323 C.3     
  15 C15           -4.3713     0.2352     2.2418 C.3     
  16 O16           -1.9229    -1.6054     2.4400 O.2     
  17 C17           -3.0851    -4.1113     3.2340 C.ar    
  18 C18           -3.8388    -5.2015     3.6467 C.ar    
  19 C19           -3.2326    -6.2426     4.3249 C.ar    
  20 C20           -1.8757    -6.1983     4.5927 C.ar    
  21 C21           -1.1224    -5.1126     4.1823 C.ar    
  22 C22           -1.7230    -4.0720     3.4984 C.ar    
  23 Cl23           0.5797    -5.0605     4.5201 Cl      
  24 Cl24          -4.1745    -7.6063     4.8413 Cl      
  25 Br25           1.5925     2.4178     0.1217 Br      
  26 C26           -7.4828    -0.9062     1.9898 C.3     
  27 C27           -8.8513    -0.5689     1.3944 C.3     
  28 C28           -9.7098     0.1279     2.4518 C.3     
  29 N29          -11.0237     0.4519     1.8801 N.3     
  30 H30            0.9568    -0.4665     0.0782 H       
  31 H31           -1.1466    -1.7460     0.0513 H       
  32 H32           -3.3645     1.8967     0.0918 H       
  33 H33           -1.2619     3.1775     0.1241 H       
  34 H34           -4.4423    -0.2081    -0.4562 H       
  35 H35           -3.5166    -1.7284    -0.4733 H       
  36 H36           -6.4947    -0.9414     0.0759 H       
  37 H37           -7.1171    -2.5207     0.6113 H       
  38 H38           -5.1644     0.7916     1.7423 H       
  39 H39           -4.6729     0.0123     3.2652 H       
  40 H40           -3.4600     0.8332     2.2536 H       
  41 H41           -4.8979    -5.2362     3.4385 H       
  42 H42           -1.4040    -7.0122     5.1232 H       
  43 H43           -1.1345    -3.2249     3.1780 H       
  44 H44           -7.6124    -1.5679     2.8463 H       
  45 H45           -6.9901     0.0115     2.3109 H       
  46 H46           -8.7217     0.0928     0.5379 H       
  47 H47           -9.3440    -1.4866     1.0733 H       
  48 H48           -9.8394    -0.5337     3.3083 H       
  49 H49           -9.2170     1.0456     2.7729 H       
  50 H50          -11.4735    -0.3748     1.5163 H       
  51 H51          -11.6099     0.9132     2.5595 H       
@<TRIPOS>BOND
   1    1    2 ar
   2    1   25 1
   3    1    6 ar
   4    2    3 ar
   5    2   30 1
   6    3    4 ar
   7    3   31 1
   8    4    5 ar
   9    4    7 1
  10    5    6 ar
  11    5   32 1
  12    6   33 1
  13    7    8 1
  14    7   34 1
  15    7   35 1
  16    8    9 1
  17    8   15 1
  18    8   12 1
  19    9   10 am
  20    9   16 2
  21   10   11 am
  22   10   17 1
  23   11   12 am
  24   11   13 2
  25   12   14 1
  26   14   26 1
  27   14   36 1
  28   14   37 1
  29   15   38 1
  30   15   39 1
  31   15   40 1
  32   17   18 ar
  33   17   22 ar
  34   18   19 ar
  35   18   41 1
  36   19   20 ar
  37   19   24 1
  38   20   21 ar
  39   20   42 1
  40   21   22 ar
  41   21   23 1
  42   22   43 1
  43   26   27 1
  44   26   44 1
  45   26   45 1
  46   27   28 1
  47   27   46 1
  48   27   47 1
  49   28   29 1
  50   28   48 1
  51   28   49 1
  52   29   50 1
  53   29   51 1

#	End of record

