#	Name: ASD06390005
#	Creating user name:	WinNT
#	Creation time:	15. 06. 2019 21:06

#	Modifying user name:	WinNT
#	Modification time:	15. 06. 2019 21:06

#	Program:	/corina/corina34_cracker 3.40 0067  02.08.2006

@<TRIPOS>MOLECULE
ASD06390005
  46   47    0    0    0
SMALL
NO_CHARGES


@<TRIPOS>ATOM
   1 C1            -0.0187     1.5258     0.0104 C.3     
   2 C2             0.0021    -0.0041     0.0020 C.3     
   3 S3             0.8511    -0.5891    -1.4904 S.o2    
   4 O4             0.0816    -0.2970    -2.6488 O.2     
   5 O5             2.2357    -0.2745    -1.4322 O.2     
   6 N6             0.8022    -2.2402    -1.3733 N.am    
   7 C7            -0.4838    -2.9402    -1.4216 C.3     
   8 C8            -0.3089    -4.2789    -2.1424 C.3     
   9 C9            -1.6622    -4.9923    -2.2215 C.3     
  10 N10           -2.2174    -5.1049    -0.8659 N.am    
  11 C11           -2.3444    -3.8888    -0.0512 C.3     
  12 C12           -0.9834    -3.1877     0.0036 C.3     
  13 C13           -2.6033    -6.3010    -0.3790 C.2     
  14 O14           -2.4938    -7.2975    -1.0616 O.2     
  15 C15           -3.1710    -6.4001     1.0134 C.3     
  16 N16           -3.5112    -7.7951     1.3039 N.pl3   
  17 C17           -4.0588    -8.1381     2.5462 C.ar    
  18 C18           -4.2795    -7.1585     3.5026 C.ar    
  19 C19           -4.8206    -7.4995     4.7295 C.ar    
  20 Cl20          -5.0970    -6.2723     5.9258 Cl      
  21 C21           -5.1422    -8.8174     5.0047 C.ar    
  22 C22           -4.9240    -9.7992     4.0538 C.ar    
  23 C23           -4.3882    -9.4636     2.8220 C.ar    
  24 O24           -4.1733   -10.4278     1.8868 O.3     
  25 Cl25          -5.8203    -9.2398     6.5459 Cl      
  26 H26            1.0039     1.9031     0.0027 H       
  27 H27           -0.5459     1.8868    -0.8726 H       
  28 H28           -0.5289     1.8773     0.9072 H       
  29 H29            0.5293    -0.3651     0.8851 H       
  30 H30           -1.0205    -0.3814     0.0098 H       
  31 H31            1.6251    -2.7439    -1.2727 H       
  32 H32           -1.2093    -2.3301    -1.9597 H       
  33 H33            0.0692    -4.1031    -3.1495 H       
  34 H34            0.3978    -4.8993    -1.5911 H       
  35 H35           -2.3428    -4.4163    -2.8485 H       
  36 H36           -1.5264    -5.9876    -2.6446 H       
  37 H37           -3.0806    -3.2228    -0.5012 H       
  38 H38           -2.6587    -4.1560     0.9577 H       
  39 H39           -0.2704    -3.8184     0.5347 H       
  40 H40           -1.0854    -2.2354     0.5239 H       
  41 H41           -2.4314    -6.0490     1.7331 H       
  42 H42           -4.0680    -5.7849     1.0848 H       
  43 H43           -3.3573    -8.4811     0.6357 H       
  44 H44           -4.0289    -6.1297     3.2900 H       
  45 H45           -5.1759   -10.8267     4.2711 H       
  46 H46           -4.9250   -10.5785     1.2974 H       
@<TRIPOS>BOND
   1    1    2 1
   2    1   26 1
   3    1   27 1
   4    1   28 1
   5    2    3 1
   6    2   29 1
   7    2   30 1
   8    3    4 2
   9    3    5 2
  10    3    6 am
  11    6    7 1
  12    6   31 1
  13    7    8 1
  14    7   12 1
  15    7   32 1
  16    8    9 1
  17    8   33 1
  18    8   34 1
  19    9   10 1
  20    9   35 1
  21    9   36 1
  22   10   11 1
  23   10   13 am
  24   11   12 1
  25   11   37 1
  26   11   38 1
  27   12   39 1
  28   12   40 1
  29   13   14 2
  30   13   15 1
  31   15   16 1
  32   15   41 1
  33   15   42 1
  34   16   17 1
  35   16   43 1
  36   17   18 ar
  37   17   23 ar
  38   18   19 ar
  39   18   44 1
  40   19   20 1
  41   19   21 ar
  42   21   22 ar
  43   21   25 1
  44   22   23 ar
  45   22   45 1
  46   23   24 1
  47   24   46 1

#	End of record

