#	Name: ASD01001237
#	Creating user name:	WinNT
#	Creation time:	15. 06. 2019 18:55

#	Modifying user name:	WinNT
#	Modification time:	15. 06. 2019 18:55

#	Program:	/corina/corina34_cracker 3.40 0067  02.08.2006

@<TRIPOS>MOLECULE
ASD01001237
  53   57    0    0    0
SMALL
NO_CHARGES


@<TRIPOS>ATOM
   1 C1            -0.0007     1.2535     0.0460 C.ar    
   2 C2            -0.0117    -0.1344     0.0497 C.ar    
   3 C3            -1.2028    -0.8270     0.0546 C.ar    
   4 C4            -2.4071    -0.1319     0.0564 C.ar    
   5 C5            -2.3911     1.2765     0.0531 C.ar    
   6 C6            -1.1720     1.9570     0.0528 C.ar    
   7 N7            -3.7278    -0.5253     0.0618 N.pl3   
   8 C8            -4.5396     0.5725     0.0601 C.2     
   9 C9            -3.7910     1.6921     0.0571 C.2     
  10 C10           -6.0528     0.5823     0.0563 C.3     
  11 N11           -6.4854     1.9635     0.3300 N.am    
  12 C12           -5.8052     3.0615    -0.3733 C.3     
  13 C13           -4.3350     3.0972     0.0627 C.3     
  14 C14           -6.5644     0.1430    -1.2914 C.2     
  15 C15           -7.4806     2.2149     1.2034 C.2     
  16 C16           -7.9085     3.6352     1.4697 C.3     
  17 O17           -8.0317     1.2982     1.7750 O.2     
  18 C18            1.3138     1.9904     0.0407 C.3     
  19 C19           -9.0468     3.6416     2.4921 C.3     
  20 C20           -9.4813     5.0835     2.7625 C.3     
  21 C21           -6.6556    -1.2342    -1.7822 C.ar    
  22 C22           -7.1885    -1.1494    -3.0813 C.ar    
  23 N23           -7.4003     0.1848    -3.3471 N.pl3   
  24 C24           -7.0284     0.9390    -2.2677 C.2     
  25 C25           -6.3383    -2.4809    -1.2393 C.ar    
  26 C26           -6.5475    -3.6137    -1.9740 C.ar    
  27 C27           -7.0727    -3.5353    -3.2567 C.ar    
  28 C28           -7.3935    -2.3159    -3.8113 C.ar    
  29 H29            0.9223    -0.6766     0.0484 H       
  30 H30           -1.2010    -1.9070     0.0567 H       
  31 H31           -1.1548     3.0369     0.0500 H       
  32 H32           -4.0350    -1.4454     0.0659 H       
  33 H33           -6.4295    -0.0845     0.8319 H       
  34 H34           -5.8628     2.8967    -1.4492 H       
  35 H35           -6.2836     4.0079    -0.1214 H       
  36 H36           -4.2622     3.5129     1.0677 H       
  37 H37           -3.7631     3.7129    -0.6315 H       
  38 H38           -7.0641     4.2015     1.8626 H       
  39 H39           -8.2515     4.0915     0.5412 H       
  40 H40            1.6281     2.1654    -0.9882 H       
  41 H41            1.1968     2.9458     0.5523 H       
  42 H42            2.0672     1.3932     0.5543 H       
  43 H43           -9.8912     3.0753     2.0992 H       
  44 H44           -8.7038     3.1853     3.4206 H       
  45 H45          -10.2922     5.0881     3.4908 H       
  46 H46           -8.6368     5.6498     3.1553 H       
  47 H47           -9.8243     5.5398     1.8339 H       
  48 H48           -7.7629     0.5373    -4.1749 H       
  49 H49           -7.0914     2.0157    -2.2123 H       
  50 H50           -5.9287    -2.5495    -0.2423 H       
  51 H51           -6.3019    -4.5778    -1.5536 H       
  52 H52           -7.2320    -4.4397    -3.8252 H       
  53 H53           -7.8019    -2.2655    -4.8098 H       
@<TRIPOS>BOND
   1    1    2 ar
   2    1   18 1
   3    1    6 ar
   4    2    3 ar
   5    2   29 1
   6    3    4 ar
   7    3   30 1
   8    4    5 ar
   9    4    7 1
  10    5    6 ar
  11    5    9 1
  12    6   31 1
  13    7    8 1
  14    7   32 1
  15    8    9 2
  16    8   10 1
  17    9   13 1
  18   10   11 1
  19   10   14 1
  20   10   33 1
  21   11   12 1
  22   11   15 am
  23   12   13 1
  24   12   34 1
  25   12   35 1
  26   13   36 1
  27   13   37 1
  28   14   21 1
  29   14   24 2
  30   15   16 1
  31   15   17 2
  32   16   19 1
  33   16   38 1
  34   16   39 1
  35   18   40 1
  36   18   41 1
  37   18   42 1
  38   19   20 1
  39   19   43 1
  40   19   44 1
  41   20   45 1
  42   20   46 1
  43   20   47 1
  44   21   22 ar
  45   21   25 ar
  46   22   23 1
  47   22   28 ar
  48   23   24 1
  49   23   48 1
  50   24   49 1
  51   25   26 ar
  52   25   50 1
  53   26   27 ar
  54   26   51 1
  55   27   28 ar
  56   27   52 1
  57   28   53 1

#	End of record

