#	Name: ASD04230108
#	Creating user name:	WinNT
#	Creation time:	15. 06. 2019 20:48

#	Modifying user name:	WinNT
#	Modification time:	15. 06. 2019 20:48

#	Program:	/corina/corina34_cracker 3.40 0067  02.08.2006

@<TRIPOS>MOLECULE
ASD04230108
  61   65    0    0    0
SMALL
NO_CHARGES


@<TRIPOS>ATOM
   1 C1             1.3694     3.6342     2.1670 C.ar    
   2 C2             2.3414     4.3645     2.8354 C.ar    
   3 C3             3.6394     3.9412     2.8529 C.ar    
   4 C4             4.0003     2.7638     2.1818 C.ar    
   5 C5             3.0133     2.0025     1.5300 C.ar    
   6 C6             1.6961     2.4567     1.5180 C.ar    
   7 C7             5.3523     2.3327     2.1595 C.2     
   8 C8             5.6848     1.2783     1.3193 C.2     
   9 C9             4.6059     0.7099     0.4908 C.2     
  10 O10            3.3360     0.8272     0.9388 O.3     
  11 C11            7.0578     0.7503     1.2581 C.2     
  12 N12            7.3496    -0.2742     0.4324 N.am    
  13 O13            7.9288     1.2386     1.9527 O.2     
  14 C14            8.6725    -0.7071     0.2956 C.ar    
  15 C15            8.9437    -2.0493     0.0602 C.ar    
  16 C16           10.2498    -2.4808    -0.0750 C.ar    
  17 C17           11.2920    -1.5809     0.0228 C.ar    
  18 C18           11.0293    -0.2323     0.2583 C.ar    
  19 C19            9.7140     0.2043     0.3891 C.ar    
  20 C20           12.1486     0.7363     0.3638 C.ar    
  21 O21            4.8508     0.1532    -0.5631 O.2     
  22 C22           12.2744     1.7636    -0.5687 C.ar    
  23 C23           13.3175     2.6618    -0.4659 C.ar    
  24 C24           14.2367     2.5433     0.5606 C.ar    
  25 C25           14.1169     1.5248     1.4892 C.ar    
  26 C26           13.0744     0.6250     1.3994 C.ar    
  27 S27           12.9232    -0.6715     2.5830 S.o2    
  28 N28           11.5403    -0.3865     3.4483 N.am    
  29 O29           12.6959    -1.8642     1.8447 O.2     
  30 O30           14.0045    -0.5138     3.4913 O.2     
  31 C31           10.2472    -0.9378     3.0130 C.3     
  32 C32            9.5996    -1.6509     4.2054 C.3     
  33 O33            9.5663    -0.7615     5.3243 O.3     
  34 C34           10.8563    -0.3545     5.7869 C.3     
  35 C35           11.5692     0.4203     4.6785 C.3     
  36 O36            0.7349     1.7449     0.8710 O.3     
  37 C37           -0.5931     2.2717     0.9010 C.3     
  38 H38            0.3481     3.9854     2.1571 H       
  39 H39            2.0690     5.2763     3.3461 H       
  40 H40            4.3873     4.5125     3.3826 H       
  41 H41            6.0992     2.8100     2.7765 H       
  42 H42            6.6422    -0.7113    -0.0669 H       
  43 H43            8.1319    -2.7574    -0.0168 H       
  44 H44           10.4557    -3.5252    -0.2575 H       
  45 H45           12.3113    -1.9218    -0.0827 H       
  46 H46            9.5054     1.2482     0.5712 H       
  47 H47           11.5573     1.8569    -1.3709 H       
  48 H48           13.4162     3.4584    -1.1885 H       
  49 H49           15.0514     3.2482     0.6374 H       
  50 H50           14.8377     1.4366     2.2886 H       
  51 H51            9.5996    -0.1298     2.6725 H       
  52 H52           10.4055    -1.6486     2.2019 H       
  53 H53            8.5832    -1.9463     3.9448 H       
  54 H54           10.1825    -2.5357     4.4609 H       
  55 H55           10.7440     0.2828     6.6641 H       
  56 H56           11.4438    -1.2346     6.0482 H       
  57 H57           12.6020     0.6112     4.9699 H       
  58 H58           11.0561     1.3658     4.5030 H       
  59 H59           -0.9306     2.3475     1.9347 H       
  60 H60           -0.6022     3.2605     0.4424 H       
  61 H61           -1.2594     1.6089     0.3489 H       
@<TRIPOS>BOND
   1    1    2 ar
   2    1    6 ar
   3    1   38 1
   4    2    3 ar
   5    2   39 1
   6    3    4 ar
   7    3   40 1
   8    4    5 ar
   9    4    7 1
  10    5    6 ar
  11    5   10 1
  12    6   36 1
  13    7    8 2
  14    7   41 1
  15    8    9 1
  16    8   11 1
  17    9   10 1
  18    9   21 2
  19   11   12 am
  20   11   13 2
  21   12   14 1
  22   12   42 1
  23   14   15 ar
  24   14   19 ar
  25   15   16 ar
  26   15   43 1
  27   16   17 ar
  28   16   44 1
  29   17   18 ar
  30   17   45 1
  31   18   19 ar
  32   18   20 1
  33   19   46 1
  34   20   22 ar
  35   20   26 ar
  36   22   23 ar
  37   22   47 1
  38   23   24 ar
  39   23   48 1
  40   24   25 ar
  41   24   49 1
  42   25   26 ar
  43   25   50 1
  44   26   27 1
  45   27   28 am
  46   27   29 2
  47   27   30 2
  48   28   31 1
  49   28   35 1
  50   31   32 1
  51   31   51 1
  52   31   52 1
  53   32   33 1
  54   32   53 1
  55   32   54 1
  56   33   34 1
  57   34   35 1
  58   34   55 1
  59   34   56 1
  60   35   57 1
  61   35   58 1
  62   36   37 1
  63   37   59 1
  64   37   60 1
  65   37   61 1

#	End of record

