#	Name: ASD03091368
#	Creating user name:	WinNT
#	Creation time:	15. 06. 2019 20:30

#	Modifying user name:	WinNT
#	Modification time:	15. 06. 2019 20:30

#	Program:	/corina/corina34_cracker 3.40 0067  02.08.2006

@<TRIPOS>MOLECULE
ASD03091368
  67   70    0    0    0
SMALL
NO_CHARGES


@<TRIPOS>ATOM
   1 C1            -0.0166     1.3766     0.0096 C.ar    
   2 C2             0.0021    -0.0041     0.0020 C.ar    
   3 C3             1.2139    -0.6894    -0.0132 C.ar    
   4 C4             2.4079    -0.0030    -0.0205 C.ar    
   5 C5             1.1879     2.0828     0.0019 C.ar    
   6 C6             1.5314     3.5069     0.0063 C.2     
   7 C7             2.4105     1.3876    -0.0130 C.ar    
   8 N8             3.4148     2.3326    -0.0167 N.pl3   
   9 C9             2.8713     3.5881    -0.0061 C.2     
  10 O10           -1.1679    -0.6972     0.0099 O.3     
  11 C11           -1.0771    -2.1233     0.0014 C.3     
  12 C12           -2.4842    -2.7240     0.0121 C.3     
  13 C13           -2.3870    -4.2509     0.0030 C.3     
  14 C14           -3.7941    -4.8516     0.0137 C.3     
  15 C15           -5.1062    -6.9748     0.0793 C.3     
  16 N16           -5.7528    -6.6021    -1.1854 N.3     
  17 C17           -5.8978    -5.1452    -1.2985 C.3     
  18 C18           -4.5142    -4.4912    -1.2886 C.3     
  19 C19           -3.6990    -6.3754     0.1304 C.3     
  20 C20           -7.0514    -7.2733    -1.3305 C.3     
  21 C21           -7.7912    -6.6873    -2.5055 C.ar    
  22 C22           -7.6294    -7.2322    -3.7656 C.ar    
  23 C23           -8.3079    -6.6947    -4.8433 C.ar    
  24 C24           -9.1486    -5.6126    -4.6609 C.ar    
  25 C25           -9.3111    -5.0683    -3.4006 C.ar    
  26 C26           -8.6359    -5.6086    -2.3221 C.ar    
  27 C27            3.6602     4.8721    -0.0067 C.3     
  28 N28            4.0325     5.2187     1.3715 N.3     
  29 C29            4.9967     6.3267     1.3934 C.3     
  30 C30            2.8440     5.5390     2.1732 C.3     
  31 C31            5.5273     6.4885     2.7570 C.1     
  32 C32            5.9504     6.6175     3.8444 C.1     
  33 H33           -0.9574     1.9071     0.0169 H       
  34 H34            1.2176    -1.7693    -0.0191 H       
  35 H35            3.3421    -0.5447    -0.0316 H       
  36 H36            0.8380     4.3348     0.0173 H       
  37 H37            4.3647     2.1365    -0.0264 H       
  38 H38           -0.5500    -2.4485    -0.8957 H       
  39 H39           -0.5324    -2.4580     0.8842 H       
  40 H40           -3.0112    -2.3989     0.9091 H       
  41 H41           -3.0289    -2.3893    -0.8707 H       
  42 H42           -1.8599    -4.5761    -0.8941 H       
  43 H43           -1.8423    -4.5856     0.8858 H       
  44 H44           -4.3528    -4.4555     0.8617 H       
  45 H45           -5.6941    -6.5930     0.9140 H       
  46 H46           -5.0412    -8.0607     0.1478 H       
  47 H47           -6.4077    -4.9023    -2.2308 H       
  48 H48           -6.4820    -4.7720    -0.4573 H       
  49 H49           -4.6229    -3.4088    -1.3568 H       
  50 H50           -3.9344    -4.8536    -2.1374 H       
  51 H51           -3.1063    -6.7674    -0.6961 H       
  52 H52           -3.2253    -6.6391     1.0759 H       
  53 H53           -6.8932    -8.3390    -1.4956 H       
  54 H54           -7.6382    -7.1293    -0.4233 H       
  55 H55           -6.9726    -8.0776    -3.9081 H       
  56 H56           -8.1810    -7.1199    -5.8279 H       
  57 H57           -9.6782    -5.1922    -5.5030 H       
  58 H58           -9.9676    -4.2227    -3.2582 H       
  59 H59           -8.7628    -5.1833    -1.3375 H       
  60 H60            4.5620     4.7442    -0.6055 H       
  61 H61            3.0527     5.6715    -0.4309 H       
  62 H62            5.8160     6.1091     0.7083 H       
  63 H63            4.5000     7.2467     1.0853 H       
  64 H64            2.1787     4.6760     2.1974 H       
  65 H65            3.1482     5.7919     3.1888 H       
  66 H66            2.3233     6.3869     1.7281 H       
  67 H67            6.3288     6.7329     4.8170 H       
@<TRIPOS>BOND
   1    1    2 ar
   2    1    5 ar
   3    1   33 1
   4    2    3 ar
   5    2   10 1
   6    3    4 ar
   7    3   34 1
   8    4    7 ar
   9    4   35 1
  10    5    7 ar
  11    5    6 1
  12    6    9 2
  13    6   36 1
  14    7    8 1
  15    8    9 1
  16    8   37 1
  17    9   27 1
  18   10   11 1
  19   11   12 1
  20   11   38 1
  21   11   39 1
  22   12   13 1
  23   12   40 1
  24   12   41 1
  25   13   14 1
  26   13   42 1
  27   13   43 1
  28   14   19 1
  29   14   18 1
  30   14   44 1
  31   15   16 1
  32   15   19 1
  33   15   45 1
  34   15   46 1
  35   16   17 1
  36   16   20 1
  37   17   18 1
  38   17   47 1
  39   17   48 1
  40   18   49 1
  41   18   50 1
  42   19   51 1
  43   19   52 1
  44   20   21 1
  45   20   53 1
  46   20   54 1
  47   21   22 ar
  48   21   26 ar
  49   22   23 ar
  50   22   55 1
  51   23   24 ar
  52   23   56 1
  53   24   25 ar
  54   24   57 1
  55   25   26 ar
  56   25   58 1
  57   26   59 1
  58   27   28 1
  59   27   60 1
  60   27   61 1
  61   28   29 1
  62   28   30 1
  63   29   31 1
  64   29   62 1
  65   29   63 1
  66   30   64 1
  67   30   65 1
  68   30   66 1
  69   31   32 3
  70   32   67 1

#	End of record

