#	Name: ASD03240038
#	Creating user name:	WinNT
#	Creation time:	15. 06. 2019 20:34

#	Modifying user name:	WinNT
#	Modification time:	15. 06. 2019 20:34

#	Program:	/corina/corina34_cracker 3.40 0067  02.08.2006

@<TRIPOS>MOLECULE
ASD03240038
  90   97    0    0    0
SMALL
NO_CHARGES


@<TRIPOS>ATOM
   1 C1            -0.0172     1.4139     0.0098 C.ar    
   2 C2             0.0021    -0.0041     0.0020 C.ar    
   3 N3             1.1287     2.1041     0.0026 N.ar    
   4 C4             2.2844     1.4652    -0.0119 C.ar    
   5 C5             2.3037     0.0031    -0.0199 C.ar    
   6 N6             1.1656    -0.6653    -0.0122 N.ar    
   7 C7             3.5942    -0.7243    -0.0362 C.ar    
   8 C8             3.5549     2.2261    -0.0204 C.ar    
   9 C9             3.6414     3.4371    -0.7071 C.ar    
  10 C10            4.8278     4.1415    -0.7110 C.ar    
  11 C11            5.9302     3.6490    -0.0356 C.ar    
  12 C12            5.8507     2.4485     0.6474 C.ar    
  13 C13            4.6684     1.7374     0.6630 C.ar    
  14 C14            3.7255    -1.9325     0.6480 C.ar    
  15 C15            4.9300    -2.6054     0.6291 C.ar    
  16 C16            6.0061    -2.0838    -0.0665 C.ar    
  17 C17            5.8820    -0.8857    -0.7470 C.ar    
  18 C18            4.6809    -0.2065    -0.7404 C.ar    
  19 C19            7.3190    -2.8235    -0.0826 C.3     
  20 N20            7.3450    -3.7502    -1.2221 N.3     
  21 C21            8.6878    -4.3133    -1.4119 C.3     
  22 C22            8.7130    -5.1567    -2.6887 C.3     
  23 C23            7.6796    -6.2806    -2.5726 C.3     
  24 C24            6.2974    -5.6691    -2.3271 C.3     
  25 C25            6.3423    -4.8109    -1.0608 C.3     
  26 N26            7.6581    -7.0561    -3.8153 N.am    
  27 C27            7.9325    -8.4167    -3.9319 C.ar    
  28 C28            7.7978    -8.7412    -5.2832 C.ar    
  29 N29            7.4457    -7.5678    -5.9458 N.am    
  30 C30            7.3641    -6.5764    -5.0385 C.2     
  31 C31            8.2812    -9.3989    -3.0173 C.ar    
  32 C32            8.4938   -10.6941    -3.4470 C.ar    
  33 C33            8.3602   -11.0158    -4.7869 C.ar    
  34 C34            8.0132   -10.0444    -5.7052 C.ar    
  35 O35            7.0766    -5.4205    -5.2874 O.2     
  36 C36           -1.2128    -0.7101     0.0099 C.ar    
  37 C37           -2.4091    -0.0132     0.0250 C.ar    
  38 C38           -2.4145     1.3928     0.0326 C.ar    
  39 C39           -1.2513     2.0920     0.0311 C.ar    
  40 C40           -3.6892    -0.7523     0.0328 C.2     
  41 O41           -3.6892    -1.9679     0.0259 O.2     
  42 N42           -4.8563    -0.0785     0.0476 N.am    
  43 C43           -6.1250    -0.8110     0.0553 C.3     
  44 C44           -7.2704     0.1683     0.0716 C.ar    
  45 C45           -7.8069     0.6242    -1.1181 C.ar    
  46 C46           -8.8575     1.5225    -1.1031 C.ar    
  47 C47           -9.3718     1.9645     0.1014 C.ar    
  48 C48           -8.8359     1.5079     1.2910 C.ar    
  49 C49           -7.7882     0.6063     1.2761 C.ar    
  50 S50          -10.7102     3.1104     0.1204 S.o2    
  51 O51          -10.6498     3.7771     1.3739 O.2     
  52 O52          -10.6720     3.7927    -1.1255 O.2     
  53 N53          -12.1113     2.2276     0.1274 N.am    
  54 H54            2.7816     3.8224    -1.2350 H       
  55 H55            4.8961     5.0791    -1.2426 H       
  56 H56            6.8568     4.2039    -0.0418 H       
  57 H57            6.7148     2.0690     1.1725 H       
  58 H58            4.6075     0.8003     1.1965 H       
  59 H59            2.8862    -2.3405     1.1916 H       
  60 H60            5.0330    -3.5409     1.1588 H       
  61 H61            6.7256    -0.4835    -1.2883 H       
  62 H62            4.5851     0.7287    -1.2720 H       
  63 H63            8.1372    -2.1094    -0.1762 H       
  64 H64            7.4311    -3.3849     0.8450 H       
  65 H65            9.4125    -3.5036    -1.4971 H       
  66 H66            8.9428    -4.9402    -0.5575 H       
  67 H67            8.4716    -4.5273    -3.5453 H       
  68 H68            9.7056    -5.5872    -2.8209 H       
  69 H69            7.9426    -6.9326    -1.7397 H       
  70 H70            6.0180    -5.0478    -3.1780 H       
  71 H71            5.5642    -6.4657    -2.2010 H       
  72 H72            6.6083    -5.4354    -0.2080 H       
  73 H73            5.3634    -4.3625    -0.8911 H       
  74 H74            7.2832    -7.4805    -6.8981 H       
  75 H75            8.3867    -9.1516    -1.9713 H       
  76 H76            8.7657   -11.4591    -2.7349 H       
  77 H77            8.5280   -12.0308    -5.1155 H       
  78 H78            7.9096   -10.2992    -6.7496 H       
  79 H79           -1.2134    -1.7901     0.0037 H       
  80 H80           -3.3555     1.9227     0.0440 H       
  81 H81           -1.2723     3.1718     0.0373 H       
  82 H82           -4.8563     0.8915     0.0530 H       
  83 H83           -6.1911    -1.4326    -0.8376 H       
  84 H84           -6.1744    -1.4427     0.9422 H       
  85 H85           -7.4050     0.2788    -2.0591 H       
  86 H86           -9.2762     1.8792    -2.0326 H       
  87 H87           -9.2375     1.8535     2.2321 H       
  88 H88           -7.3695     0.2495     2.2055 H       
  89 H89          -12.0738     1.2584     0.1210 H       
  90 H90          -12.9694     2.6798     0.1378 H       
@<TRIPOS>BOND
   1    1    2 ar
   2    1    3 ar
   3    1   39 ar
   4    2   36 ar
   5    2    6 ar
   6    3    4 ar
   7    4    5 ar
   8    4    8 1
   9    5    6 ar
  10    5    7 1
  11    7   14 ar
  12    7   18 ar
  13    8    9 ar
  14    8   13 ar
  15    9   10 ar
  16    9   54 1
  17   10   11 ar
  18   10   55 1
  19   11   12 ar
  20   11   56 1
  21   12   13 ar
  22   12   57 1
  23   13   58 1
  24   14   15 ar
  25   14   59 1
  26   15   16 ar
  27   15   60 1
  28   16   17 ar
  29   16   19 1
  30   17   18 ar
  31   17   61 1
  32   18   62 1
  33   19   20 1
  34   19   63 1
  35   19   64 1
  36   20   21 1
  37   20   25 1
  38   21   22 1
  39   21   65 1
  40   21   66 1
  41   22   23 1
  42   22   67 1
  43   22   68 1
  44   23   24 1
  45   23   26 1
  46   23   69 1
  47   24   25 1
  48   24   70 1
  49   24   71 1
  50   25   72 1
  51   25   73 1
  52   26   27 1
  53   26   30 am
  54   27   28 ar
  55   27   31 ar
  56   28   29 1
  57   28   34 ar
  58   29   30 am
  59   29   74 1
  60   30   35 2
  61   31   32 ar
  62   31   75 1
  63   32   33 ar
  64   32   76 1
  65   33   34 ar
  66   33   77 1
  67   34   78 1
  68   36   37 ar
  69   36   79 1
  70   37   38 ar
  71   37   40 1
  72   38   39 ar
  73   38   80 1
  74   39   81 1
  75   40   41 2
  76   40   42 am
  77   42   43 1
  78   42   82 1
  79   43   44 1
  80   43   83 1
  81   43   84 1
  82   44   45 ar
  83   44   49 ar
  84   45   46 ar
  85   45   85 1
  86   46   47 ar
  87   46   86 1
  88   47   48 ar
  89   47   50 1
  90   48   49 ar
  91   48   87 1
  92   49   88 1
  93   50   51 2
  94   50   52 2
  95   50   53 am
  96   53   89 1
  97   53   90 1

#	End of record

