#	Name: ASD01881535
#	Creating user name:	WinNT
#	Creation time:	15. 06. 2019 19:42

#	Modifying user name:	WinNT
#	Modification time:	15. 06. 2019 19:42

#	Program:	/corina/corina34_cracker 3.40 0067  02.08.2006

@<TRIPOS>MOLECULE
ASD01881535
  49   52    0    0    0
SMALL
NO_CHARGES


@<TRIPOS>ATOM
   1 O1             0.2988     0.8968     0.0100 O.3     
   2 C2             0.2733    -0.5517    -0.1006 C.3     
   3 C3             1.7560    -0.9492    -0.2040 C.3     
   4 N4             2.4732     0.3356    -0.1400 N.pl3   
   5 C5             1.5744     1.3409    -0.0183 C.2     
   6 C6             3.8151     0.5912    -0.1857 C.2     
   7 C7             4.2535     1.8651    -0.1084 C.2     
   8 C8             3.2944     2.9017     0.0187 C.2     
   9 N9             1.9931     2.5969     0.0586 N.2     
  10 O10            3.6549     4.0664     0.0918 O.2     
  11 C11           -0.4846    -0.9793    -1.3590 C.3     
  12 O12           -1.8631    -0.6265    -1.2279 O.3     
  13 C13           -2.6815    -0.9388    -2.2669 C.ar    
  14 C14           -4.0319    -0.6248    -2.2061 C.ar    
  15 C15           -4.8563    -0.9466    -3.2690 C.ar    
  16 C16           -4.3460    -1.5710    -4.3776 C.ar    
  17 C17           -3.0001    -1.8877    -4.4464 C.ar    
  18 C18           -2.1665    -1.5667    -3.3920 C.ar    
  19 C19           -6.3300    -0.6039    -3.1993 C.3     
  20 C20           -6.6092     0.5369    -4.1809 C.3     
  21 C21           -6.8697     0.0006    -5.5747 C.3     
  22 C22           -5.6602    -0.6227    -6.2427 C.3     
  23 C23           -5.2539    -1.9196    -5.5390 C.3     
  24 C24           -4.5081    -2.8256    -6.5207 C.3     
  25 C25           -6.5022    -2.6353    -5.0189 C.3     
  26 H26           -0.1791    -0.9941     0.7870 H       
  27 H27            2.0399    -1.5876     0.6326 H       
  28 H28            1.9524    -1.4498    -1.1521 H       
  29 H29            4.5201    -0.2212    -0.2826 H       
  30 H30            5.3093     2.0897    -0.1422 H       
  31 H31           -0.0613    -0.4742    -2.2273 H       
  32 H32           -0.3962    -2.0581    -1.4874 H       
  33 H33           -4.4367    -0.1326    -1.3341 H       
  34 H34           -2.6028    -2.3801    -5.3217 H       
  35 H35           -1.1157    -1.8112    -3.4406 H       
  36 H36           -6.9224    -1.4767    -3.4739 H       
  37 H37           -6.5851    -0.2877    -2.1879 H       
  38 H38           -7.4825     1.0948    -3.8427 H       
  39 H39           -5.7478     1.2042    -4.2090 H       
  40 H40           -7.6570    -0.7508    -5.5144 H       
  41 H41           -7.2259     0.8198    -6.1993 H       
  42 H42           -5.8983    -0.8397    -7.2840 H       
  43 H43           -4.8283     0.0806    -6.2055 H       
  44 H44           -3.6153    -2.3142    -6.8806 H       
  45 H45           -4.2201    -3.7482    -6.0168 H       
  46 H46           -5.1575    -3.0598    -7.3642 H       
  47 H47           -6.8786    -3.3126    -5.7855 H       
  48 H48           -6.2487    -3.2040    -4.1242 H       
  49 H49           -7.2686    -1.8991    -4.7765 H       
@<TRIPOS>BOND
   1    1    2 1
   2    1    5 1
   3    2    3 1
   4    2   11 1
   5    2   26 1
   6    3    4 1
   7    3   27 1
   8    3   28 1
   9    4    5 1
  10    4    6 1
  11    5    9 2
  12    6    7 2
  13    6   29 1
  14    7    8 1
  15    7   30 1
  16    8    9 1
  17    8   10 2
  18   11   12 1
  19   11   31 1
  20   11   32 1
  21   12   13 1
  22   13   14 ar
  23   13   18 ar
  24   14   15 ar
  25   14   33 1
  26   15   16 ar
  27   15   19 1
  28   16   17 ar
  29   16   23 1
  30   17   18 ar
  31   17   34 1
  32   18   35 1
  33   19   20 1
  34   19   36 1
  35   19   37 1
  36   20   21 1
  37   20   38 1
  38   20   39 1
  39   21   22 1
  40   21   40 1
  41   21   41 1
  42   22   23 1
  43   22   42 1
  44   22   43 1
  45   23   24 1
  46   23   25 1
  47   24   44 1
  48   24   45 1
  49   24   46 1
  50   25   47 1
  51   25   48 1
  52   25   49 1

#	End of record

