#	Name: ASD01884133
#	Creating user name:	WinNT
#	Creation time:	15. 06. 2019 19:47

#	Modifying user name:	WinNT
#	Modification time:	15. 06. 2019 19:47

#	Program:	/corina/corina34_cracker 3.40 0067  02.08.2006

@<TRIPOS>MOLECULE
ASD01884133
  51   55    0    0    0
SMALL
NO_CHARGES


@<TRIPOS>ATOM
   1 C1             0.0103     1.3105     0.1161 C.2     
   2 C2            -0.0249    -0.0410    -0.0954 C.2     
   3 C3            -1.2705    -0.6984    -0.1959 C.2     
   4 C4            -2.4177    -0.0007    -0.0848 C.2     
   5 N5            -2.3935     1.3472     0.1256 N.pl3   
   6 C6            -1.1988     2.0167     0.2350 C.2     
   7 N7            -1.4916     3.2930     0.4330 N.2     
   8 C8            -3.3648     2.2932     0.2747 C.2     
   9 N9            -2.7693     3.4432     0.4512 N.2     
  10 C10           -4.8526     2.0562     0.2393 C.3     
  11 C11           -5.3545     1.7530     1.6524 C.3     
  12 C12           -6.8640     1.5975     1.8478 C.3     
  13 C13           -5.9544     0.3687     1.9072 C.3     
  14 N14            1.1592    -0.7628    -0.2111 N.pl3   
  15 C15            2.0635    -0.5403    -1.3476 C.3     
  16 C16            2.3434    -1.8851    -2.0257 C.3     
  17 C17            2.8724    -2.8758    -0.9861 C.3     
  18 C18            1.8150    -3.0927     0.0988 C.3     
  19 C19            1.5319    -1.7575     0.8039 C.3     
  20 C20            3.1810    -4.1899    -1.6563 C.ar    
  21 C21            2.1856    -4.8949    -2.3054 C.ar    
  22 N22            2.4480    -6.0455    -2.8942 N.ar    
  23 C23            3.6591    -6.5667    -2.8890 C.ar    
  24 C24            4.7052    -5.9182    -2.2599 C.ar    
  25 C25            4.4687    -4.7039    -1.6342 C.ar    
  26 C26            1.3291     2.0315     0.2264 C.3     
  27 F27            1.7766     2.3831    -1.0517 F       
  28 F28            1.1656     3.1872     0.9976 F       
  29 F29            2.2692     1.1935     0.8355 F       
  30 H30           -1.3038    -1.7649    -0.3627 H       
  31 H31           -3.3652    -0.5129    -0.1635 H       
  32 H32           -5.3534     2.9465    -0.1410 H       
  33 H33           -5.0703     1.2104    -0.4129 H       
  34 H34           -4.7870     2.2126     2.4616 H       
  35 H35           -7.2896     1.9546     2.7856 H       
  36 H36           -7.4995     1.7113     0.9695 H       
  37 H37           -5.9915    -0.3260     1.0681 H       
  38 H38           -5.7815    -0.0826     2.8842 H       
  39 H39            1.5945     0.1378    -2.0605 H       
  40 H40            2.9990    -0.1091    -0.9911 H       
  41 H41            1.4219    -2.2719    -2.4609 H       
  42 H42            3.0877    -1.7490    -2.8103 H       
  43 H43            3.7804    -2.4771    -0.5336 H       
  44 H44            0.8985    -3.4681    -0.3564 H       
  45 H45            2.1832    -3.8161     0.8263 H       
  46 H46            2.4249    -1.4284     1.3353 H       
  47 H47            0.7103    -1.8837     1.5091 H       
  48 H48            1.1809    -4.4993    -2.3307 H       
  49 H49            3.8358    -7.5114    -3.3816 H       
  50 H50            5.6950    -6.3503    -2.2587 H       
  51 H51            5.2668    -4.1747    -1.1348 H       
@<TRIPOS>BOND
   1    1    2 2
   2    1   26 1
   3    1    6 1
   4    2    3 1
   5    2   14 1
   6    3    4 2
   7    3   30 1
   8    4    5 1
   9    4   31 1
  10    5    6 1
  11    5    8 1
  12    6    7 2
  13    7    9 1
  14    8    9 2
  15    8   10 1
  16   10   11 1
  17   10   32 1
  18   10   33 1
  19   11   12 1
  20   11   13 1
  21   11   34 1
  22   12   13 1
  23   12   35 1
  24   12   36 1
  25   13   37 1
  26   13   38 1
  27   14   15 1
  28   14   19 1
  29   15   16 1
  30   15   39 1
  31   15   40 1
  32   16   17 1
  33   16   41 1
  34   16   42 1
  35   17   18 1
  36   17   20 1
  37   17   43 1
  38   18   19 1
  39   18   44 1
  40   18   45 1
  41   19   46 1
  42   19   47 1
  43   20   21 ar
  44   20   25 ar
  45   21   22 ar
  46   21   48 1
  47   22   23 ar
  48   23   24 ar
  49   23   49 1
  50   24   25 ar
  51   24   50 1
  52   25   51 1
  53   26   27 1
  54   26   28 1
  55   26   29 1

#	End of record

