#	Name: ASD01911156
#	Creating user name:	WinNT
#	Creation time:	15. 06. 2019 19:57

#	Modifying user name:	WinNT
#	Modification time:	15. 06. 2019 19:57

#	Program:	/corina/corina34_cracker 3.40 0067  02.08.2006

@<TRIPOS>MOLECULE
ASD01911156
  46   48    0    0    0
SMALL
NO_CHARGES


@<TRIPOS>ATOM
   1 C1            -0.0178     1.4608     0.0101 C.3     
   2 N2             0.0021    -0.0041     0.0020 N.pl3   
   3 N3             0.0236    -0.8326     1.1310 N.2     
   4 C4             0.0361    -2.0859     0.7242 C.2     
   5 C5             0.0229    -2.0891    -0.6847 C.2     
   6 C6            -0.0031    -0.7964    -1.1023 C.2     
   7 C7             0.0604    -3.2813     1.5951 C.2     
   8 N8            -0.0230    -0.3607    -2.4263 N.am    
   9 C9            -0.0167    -1.2586    -3.4313 C.2     
  10 C10           -0.0377    -0.7974    -4.8329 C.ar    
  11 O11            0.0064    -2.4488    -3.1832 O.2     
  12 C12           -0.0312    -1.7268    -5.8765 C.ar    
  13 C13           -0.0509    -1.2923    -7.1830 C.ar    
  14 C14           -0.0768     0.0686    -7.4645 C.ar    
  15 C15           -0.0834     0.9963    -6.4294 C.ar    
  16 C16           -0.0701     0.5699    -5.1201 C.ar    
  17 O17           -0.0952     0.4928    -8.7535 O.3     
  18 C18           -0.1214     1.9048    -8.9715 C.3     
  19 C19           -0.1393     2.1885   -10.4749 C.3     
  20 C20           -0.1674     3.7004   -10.7083 C.3     
  21 C21           -0.1853     3.9841   -12.2116 C.3     
  22 C22            0.0729    -3.2622     2.9423 C.2     
  23 C23            0.0945    -4.5078     3.5366 C.2     
  24 C24            0.0997    -5.5394     2.6882 C.2     
  25 S25            0.0699    -4.9477     1.0324 S.3     
  26 H26            1.0048     1.8381     0.0023 H       
  27 H27           -0.5450     1.8219    -0.8730 H       
  28 H28           -0.5280     1.8123     0.9069 H       
  29 H29            0.0284    -2.9630    -1.3192 H       
  30 H30           -0.0414     0.5887    -2.6242 H       
  31 H31           -0.0104    -2.7844    -5.6586 H       
  32 H32           -0.0459    -2.0099    -7.9901 H       
  33 H33           -0.1031     2.0528    -6.6523 H       
  34 H34           -0.0755     1.2913    -4.3164 H       
  35 H35           -1.0149     2.3270    -8.5115 H       
  36 H36            0.7648     2.3576    -8.5268 H       
  37 H37            0.7541     1.7664   -10.9349 H       
  38 H38           -1.0255     1.7357   -10.9196 H       
  39 H39           -1.0608     4.1225   -10.2482 H       
  40 H40            0.7188     4.1532   -10.2636 H       
  41 H41           -0.2052     5.0611   -12.3779 H       
  42 H42            0.7082     3.5619   -12.6717 H       
  43 H43           -1.0714     3.5313   -12.6563 H       
  44 H44            0.0668    -2.3448     3.5121 H       
  45 H45            0.1066    -4.6386     4.6086 H       
  46 H46            0.1161    -6.5803     2.9758 H       
@<TRIPOS>BOND
   1    1    2 1
   2    1   26 1
   3    1   27 1
   4    1   28 1
   5    2    3 1
   6    2    6 1
   7    3    4 2
   8    4    5 1
   9    4    7 1
  10    5    6 2
  11    5   29 1
  12    6    8 1
  13    7   22 2
  14    7   25 1
  15    8    9 am
  16    8   30 1
  17    9   10 1
  18    9   11 2
  19   10   12 ar
  20   10   16 ar
  21   12   13 ar
  22   12   31 1
  23   13   14 ar
  24   13   32 1
  25   14   15 ar
  26   14   17 1
  27   15   16 ar
  28   15   33 1
  29   16   34 1
  30   17   18 1
  31   18   19 1
  32   18   35 1
  33   18   36 1
  34   19   20 1
  35   19   37 1
  36   19   38 1
  37   20   21 1
  38   20   39 1
  39   20   40 1
  40   21   41 1
  41   21   42 1
  42   21   43 1
  43   22   23 1
  44   22   44 1
  45   23   24 2
  46   23   45 1
  47   24   25 1
  48   24   46 1

#	End of record

