#	Name: ASD03091695
#	Creating user name:	WinNT
#	Creation time:	15. 06. 2019 20:31

#	Modifying user name:	WinNT
#	Modification time:	15. 06. 2019 20:31

#	Program:	/corina/corina34_cracker 3.40 0067  02.08.2006

@<TRIPOS>MOLECULE
ASD03091695
  68   72    0    0    0
SMALL
NO_CHARGES


@<TRIPOS>ATOM
   1 Cl1            0.0000     0.0000     0.0000 Cl      
   2 H2             0.0000     1.3700     0.0000 H       
   3 C3            14.6289    14.4688     6.9285 C.ar    
   4 C4            14.5536    13.0824     7.1177 C.ar    
   5 C5            15.7250    12.3258     7.2038 C.ar    
   6 C6            16.9573    12.9419     7.1027 C.ar    
   7 C7            17.0344    14.3237     6.9141 C.ar    
   8 C8            15.9063    15.0735     6.8283 C.ar    
   9 S9            12.8659    12.5911     7.2089 S.3     
  10 C10           12.3212    14.2451     6.9923 C.2     
  11 C11           13.3640    15.0736     6.8700 C.2     
  12 C12           10.9140    14.6627     6.9553 C.2     
  13 O13           10.6315    15.8359     6.7998 O.2     
  14 N14            9.9353    13.7464     7.0936 N.am    
  15 N15            6.9855    13.7795     8.9165 N.3     
  16 C16            8.0954    14.6220     8.4512 C.3     
  17 C17            8.5313    14.1631     7.0567 C.3     
  18 C18            7.6549    12.9793     6.6287 C.3     
  19 C19            6.1891    13.4311     6.6275 C.3     
  20 C20            5.8179    13.9096     8.0340 C.3     
  21 C21            7.4020    12.3753     9.0342 C.3     
  22 C22            7.8188    11.8525     7.6566 C.3     
  23 N23           18.1249    12.1839     7.1896 N.am    
  24 S24           19.4570    12.6106     6.3031 S.o2    
  25 C25           20.4959    13.5719     7.3525 C.ar    
  26 O26           20.1623    11.4067     6.0338 O.2     
  27 O27           18.9965    13.4863     5.2831 O.2     
  28 S28           18.1792    10.8572     8.1792 S.o2    
  29 O29           19.5289    10.7287     8.6044 O.2     
  30 O30           17.0888    10.9848     9.0814 O.2     
  31 C31           17.8359     9.4469     7.1802 C.ar    
  32 C32           18.8700     8.7711     6.5598 C.ar    
  33 C33           18.6007     7.6648     5.7760 C.ar    
  34 C34           17.2974     7.2340     5.6129 C.ar    
  35 C35           16.2634     7.9092     6.2340 C.ar    
  36 C36           16.5331     9.0130     7.0213 C.ar    
  37 C37           21.4618    12.9529     8.1237 C.ar    
  38 C38           22.2768    13.7071     8.9471 C.ar    
  39 C39           22.1262    15.0802     8.9989 C.ar    
  40 C40           21.1609    15.6993     8.2269 C.ar    
  41 C41           20.3488    14.9455     7.4003 C.ar    
  42 H42           15.6670    11.2573     7.3500 H       
  43 H43           18.0006    14.8000     6.8361 H       
  44 H44           15.9830    16.1408     6.6820 H       
  45 H45           13.2405    16.1371     6.7282 H       
  46 H46           10.1606    12.8111     7.2176 H       
  47 H47            7.7692    15.6611     8.4066 H       
  48 H48            8.9339    14.5331     9.1419 H       
  49 H49            8.4100    14.9824     6.3480 H       
  50 H50            7.9433    12.6398     5.6339 H       
  51 H51            6.0592    14.2480     5.9177 H       
  52 H52            5.5494    12.5947     6.3457 H       
  53 H53            5.0000    13.3018     8.4209 H       
  54 H54            5.5076    14.9537     7.9928 H       
  55 H55            8.2450    12.3023     9.7212 H       
  56 H56            6.5711    11.7800     9.4129 H       
  57 H57            7.1857    11.0099     7.3788 H       
  58 H58            8.8609    11.5344     7.6867 H       
  59 H59           19.8883     9.1077     6.6872 H       
  60 H60           19.4086     7.1372     5.2908 H       
  61 H61           17.0869     6.3700     5.0000 H       
  62 H62           15.2451     7.5729     6.1063 H       
  63 H63           15.7253     9.5406     7.5066 H       
  64 H64           21.5794    11.8801     8.0833 H       
  65 H65           23.0310    13.2234     9.5501 H       
  66 H66           22.7625    15.6693     9.6427 H       
  67 H67           21.0430    16.7720     8.2676 H       
  68 H68           19.5946    15.4292     6.7972 H       
@<TRIPOS>BOND
   1    1    2 1
   2    3    4 ar
   3    3    8 ar
   4    3   11 1
   5    4    5 ar
   6    4    9 1
   7    5    6 ar
   8    5   42 1
   9    6    7 ar
  10    6   23 1
  11    7    8 ar
  12    7   43 1
  13    8   44 1
  14    9   10 1
  15   10   11 2
  16   10   12 1
  17   11   45 1
  18   12   13 2
  19   12   14 am
  20   14   17 1
  21   14   46 1
  22   15   16 1
  23   15   20 1
  24   15   21 1
  25   16   17 1
  26   16   47 1
  27   16   48 1
  28   17   18 1
  29   17   49 1
  30   18   19 1
  31   18   22 1
  32   18   50 1
  33   19   20 1
  34   19   51 1
  35   19   52 1
  36   20   53 1
  37   20   54 1
  38   21   22 1
  39   21   55 1
  40   21   56 1
  41   22   57 1
  42   22   58 1
  43   23   24 am
  44   23   28 am
  45   24   25 1
  46   24   26 2
  47   24   27 2
  48   25   37 ar
  49   25   41 ar
  50   28   29 2
  51   28   30 2
  52   28   31 1
  53   31   32 ar
  54   31   36 ar
  55   32   33 ar
  56   32   59 1
  57   33   34 ar
  58   33   60 1
  59   34   35 ar
  60   34   61 1
  61   35   36 ar
  62   35   62 1
  63   36   63 1
  64   37   38 ar
  65   37   64 1
  66   38   39 ar
  67   38   65 1
  68   39   40 ar
  69   39   66 1
  70   40   41 ar
  71   40   67 1
  72   41   68 1

#	End of record

