#	Name: ASD03930182
#	Creating user name:	WinNT
#	Creation time:	15. 06. 2019 20:47

#	Modifying user name:	WinNT
#	Modification time:	15. 06. 2019 20:47

#	Program:	/corina/corina34_cracker 3.40 0067  02.08.2006

@<TRIPOS>MOLECULE
ASD03930182
  39   39    0    0    0
SMALL
NO_CHARGES


@<TRIPOS>ATOM
   1 C1            -0.0162     1.3436     0.0094 C.2     
   2 N2             0.0021    -0.0041     0.0020 N.am    
   3 O3             1.0277     1.9654     0.0028 O.2     
   4 O4            -1.1912     2.0008     0.0186 O.3     
   5 C5             1.2806    -0.7192    -0.0140 C.3     
   6 C6             1.8007    -0.8662     1.4173 C.3     
   7 Cl7            3.3742    -1.7463     1.3976 Cl      
   8 S8            -1.4206    -0.8515     0.0111 S.o2    
   9 O9            -1.1207    -2.1334     0.5458 O.2     
  10 O10           -2.3996     0.0139     0.5695 O.2     
  11 C11           -1.8848    -1.1094    -1.6690 C.ar    
  12 C12           -2.2096    -0.0266    -2.4736 C.ar    
  13 C13           -2.5747    -0.2323    -3.7958 C.ar    
  14 C14           -2.6143    -1.5145    -4.3090 C.ar    
  15 C15           -2.2901    -2.5925    -3.5053 C.ar    
  16 C16           -1.9201    -2.3890    -2.1876 C.ar    
  17 O17           -2.1704     1.2338    -1.9666 O.3     
  18 Br18          -2.3458    -4.3463    -4.2103 Br      
  19 C19           -1.1349     3.4517     0.0262 C.3     
  20 C20           -0.4003     3.9401    -1.2239 C.3     
  21 C21           -2.5565     4.0172     0.0360 C.3     
  22 C22           -0.3885     3.9266     1.2745 C.3     
  23 H23            1.1388    -1.7071    -0.4523 H       
  24 H24            2.0030    -0.1587    -0.6074 H       
  25 H25            1.9425     0.1217     1.8556 H       
  26 H26            1.0783    -1.4267     2.0107 H       
  27 H27           -2.8282     0.6091    -4.4236 H       
  28 H28           -2.8988    -1.6751    -5.3384 H       
  29 H29           -1.6631    -3.2317    -1.5630 H       
  30 H30           -1.3133     1.6707    -2.0644 H       
  31 H31           -0.9321     3.6018    -2.1132 H       
  32 H32           -0.3581     5.0293    -1.2182 H       
  33 H33            0.6125     3.5373    -1.2309 H       
  34 H34           -3.0798     3.6692     0.9266 H       
  35 H35           -2.5142     5.1064     0.0417 H       
  36 H36           -3.0883     3.6789    -0.8533 H       
  37 H37            0.6243     3.5237     1.2675 H       
  38 H38           -0.3462     5.0157     1.2802 H       
  39 H39           -0.9118     3.5786     2.1651 H       
@<TRIPOS>BOND
   1    1    2 am
   2    1    3 2
   3    1    4 1
   4    2    5 1
   5    2    8 am
   6    4   19 1
   7    5    6 1
   8    5   23 1
   9    5   24 1
  10    6    7 1
  11    6   25 1
  12    6   26 1
  13    8    9 2
  14    8   10 2
  15    8   11 1
  16   11   12 ar
  17   11   16 ar
  18   12   13 ar
  19   12   17 1
  20   13   14 ar
  21   13   27 1
  22   14   15 ar
  23   14   28 1
  24   15   16 ar
  25   15   18 1
  26   16   29 1
  27   17   30 1
  28   19   20 1
  29   19   22 1
  30   19   21 1
  31   20   31 1
  32   20   32 1
  33   20   33 1
  34   21   34 1
  35   21   35 1
  36   21   36 1
  37   22   37 1
  38   22   38 1
  39   22   39 1

#	End of record

