#	Name: ASD03331316
#	Creating user name:	WinNT
#	Creation time:	15. 06. 2019 20:39

#	Modifying user name:	WinNT
#	Modification time:	15. 06. 2019 20:39

#	Program:	/corina/corina34_cracker 3.40 0067  02.08.2006

@<TRIPOS>MOLECULE
ASD03331316
  65   68    0    0    0
SMALL
NO_CHARGES


@<TRIPOS>ATOM
   1 C1             0.1256     1.5373    -0.2846 C.3     
   2 C2             0.1117     0.0295    -0.2707 C.2     
   3 C3             1.2043    -0.7303    -0.5247 C.2     
   4 C4             2.5567    -0.1484    -0.8547 C.3     
   5 C5             2.3552     1.3261    -1.2314 C.3     
   6 N6             1.5264     1.9870    -0.2143 N.3     
   7 N7            -0.5245    -2.0722    -0.1023 N.2     
   8 N8             0.8408    -2.0311    -0.4256 N.am    
   9 C9            -0.9642    -0.8335    -0.0092 C.2     
  10 C10            1.6465    -3.0964    -0.6057 C.2     
  11 O11            2.8175    -2.9322    -0.8847 O.2     
  12 N12            1.1530    -4.3439    -0.4763 N.am    
  13 C13            1.6166     3.4486    -0.3300 C.3     
  14 C14            1.2019    -6.6935    -1.0814 C.2     
  15 C15            2.0288    -5.5020    -0.6721 C.3     
  16 C16            2.7613    -5.8141     0.6344 C.3     
  17 C17            3.5240    -7.1324     0.4891 C.3     
  18 O18            0.0765    -6.8278    -0.6497 O.2     
  19 C19            3.7468    -4.6866     0.9485 C.3     
  20 C20            1.7456    -5.9353     1.7722 C.3     
  21 N21            1.7131    -7.6099    -1.9272 N.am    
  22 C22            1.0645    -8.8697    -2.3196 C.3     
  23 C23            2.0278    -9.6019    -3.2775 C.3     
  24 C24            3.4056    -8.9805    -2.9269 C.3     
  25 C25            3.0123    -7.5122    -2.6171 C.3     
  26 O26            1.6853    -9.3367    -4.6392 O.3     
  27 C27           -2.3527    -0.4230     0.3152 C.ar    
  28 C28           -3.4296    -1.1847    -0.1347 C.ar    
  29 C29           -4.7205    -0.7987     0.1702 C.ar    
  30 C30           -4.9444     0.3457     0.9227 C.ar    
  31 C31           -3.8760     1.1040     1.3707 C.ar    
  32 C32           -2.5830     0.7218     1.0751 C.ar    
  33 F33           -6.2080     0.7211     1.2185 F       
  34 F34           -5.7659    -1.5356    -0.2649 F       
  35 H35           -0.3312     1.9005    -1.2052 H       
  36 H36           -0.4261     1.9178     0.5750 H       
  37 H37            3.2116    -0.2212     0.0137 H       
  38 H38            2.9953    -0.6872    -1.6946 H       
  39 H39            3.3243     1.8219    -1.2881 H       
  40 H40            1.8590     1.3886    -2.1999 H       
  41 H41            0.2181    -4.4750    -0.2536 H       
  42 H42            1.0593     3.9126     0.4838 H       
  43 H43            2.6616     3.7537    -0.2750 H       
  44 H44            1.1957     3.7641    -1.2847 H       
  45 H45            2.7565    -5.2794    -1.4524 H       
  46 H46            4.2973    -7.0228    -0.2713 H       
  47 H47            3.9855    -7.3921     1.4418 H       
  48 H48            2.8327    -7.9214     0.1932 H       
  49 H49            3.2034    -3.7474     1.0520 H       
  50 H50            4.2686    -4.9090     1.8792 H       
  51 H51            4.4704    -4.6003     0.1379 H       
  52 H52            1.0435    -6.7385     1.5485 H       
  53 H53            2.2674    -6.1576     2.7029 H       
  54 H54            1.2022    -4.9961     1.8757 H       
  55 H55            0.8817    -9.4831    -1.4373 H       
  56 H56            0.1240    -8.6595    -2.8289 H       
  57 H57            2.0269   -10.6739    -3.0802 H       
  58 H58            3.8415    -9.4645    -2.0530 H       
  59 H59            4.0844    -9.0299    -3.7783 H       
  60 H60            2.9097    -6.9416    -3.5401 H       
  61 H61            3.7541    -7.0507    -1.9653 H       
  62 H62            2.2606    -9.7739    -5.2818 H       
  63 H63           -3.2552    -2.0748    -0.7209 H       
  64 H64           -4.0545     1.9939     1.9561 H       
  65 H65           -1.7507     1.3122     1.4288 H       
@<TRIPOS>BOND
   1    1    2 1
   2    1    6 1
   3    1   35 1
   4    1   36 1
   5    2    3 2
   6    2    9 1
   7    3    4 1
   8    3    8 1
   9    4    5 1
  10    4   37 1
  11    4   38 1
  12    5    6 1
  13    5   39 1
  14    5   40 1
  15    6   13 1
  16    7    8 1
  17    7    9 2
  18    8   10 am
  19    9   27 1
  20   10   11 2
  21   10   12 am
  22   12   15 1
  23   12   41 1
  24   13   42 1
  25   13   43 1
  26   13   44 1
  27   14   18 2
  28   14   21 am
  29   14   15 1
  30   15   16 1
  31   15   45 1
  32   16   17 1
  33   16   19 1
  34   16   20 1
  35   17   46 1
  36   17   47 1
  37   17   48 1
  38   19   49 1
  39   19   50 1
  40   19   51 1
  41   20   52 1
  42   20   53 1
  43   20   54 1
  44   21   22 1
  45   21   25 1
  46   22   23 1
  47   22   55 1
  48   22   56 1
  49   23   24 1
  50   23   26 1
  51   23   57 1
  52   24   25 1
  53   24   58 1
  54   24   59 1
  55   25   60 1
  56   25   61 1
  57   26   62 1
  58   27   28 ar
  59   27   32 ar
  60   28   29 ar
  61   28   63 1
  62   29   30 ar
  63   29   34 1
  64   30   31 ar
  65   30   33 1
  66   31   32 ar
  67   31   64 1
  68   32   65 1

#	End of record

