#	Name: ASD01813496
#	Creating user name:	WinNT
#	Creation time:	15. 06. 2019 19:30

#	Modifying user name:	WinNT
#	Modification time:	15. 06. 2019 19:30

#	Program:	/corina/corina34_cracker 3.40 0067  02.08.2006

@<TRIPOS>MOLECULE
ASD01813496
  51   54    0    0    0
SMALL
NO_CHARGES


@<TRIPOS>ATOM
   1 C1            -0.5259     0.5755     0.4978 C.ar    
   2 C2            -0.4490    -0.8025     0.3561 C.ar    
   3 C3             0.7736    -1.4411     0.3336 C.ar    
   4 C4             1.9483    -0.6993     0.4540 C.ar    
   5 C5             1.8657     0.6957     0.5973 C.ar    
   6 C6             0.6221     1.3271     0.6183 C.ar    
   7 N7             3.1769    -1.3248     0.4341 N.pl3   
   8 C8             4.3323    -0.6582     0.5474 C.2     
   9 C9             4.3787     0.7138     0.6934 C.2     
  10 C10            3.1156     1.4686     0.7237 C.2     
  11 O11            3.1028     2.6805     0.8503 O.2     
  12 C12            5.6677     1.4091     0.8158 C.2     
  13 O13            5.6999     2.7493     0.9580 O.3     
  14 O14            6.7050     0.7757     0.7887 O.2     
  15 C15            3.2197    -2.7814     0.2829 C.3     
  16 C16            3.1450    -3.1371    -1.1796 C.ar    
  17 N17            1.9671    -3.2337    -1.7649 N.ar    
  18 C18            1.8476    -3.5413    -3.0404 C.ar    
  19 C19            2.9764    -3.7777    -3.8214 C.ar    
  20 C20            4.2394    -3.6830    -3.2304 C.ar    
  21 C21            4.3131    -3.3515    -1.8886 C.ar    
  22 C22            2.8402    -4.1250    -5.2578 C.ar    
  23 F23            0.8328    -2.7837     0.1954 F       
  24 C24            1.5777    -4.2172    -5.8367 C.ar    
  25 C25            1.4572    -4.5418    -7.1800 C.ar    
  26 C26            2.5953    -4.7737    -7.9430 C.ar    
  27 C27            3.8483    -4.6823    -7.3668 C.ar    
  28 C28            3.9765    -4.3541    -6.0321 C.ar    
  29 N29            0.1924    -4.6360    -7.7654 N.am    
  30 S30           -0.6675    -3.2620    -8.1044 S.o2    
  31 O31           -1.8657    -3.7371    -8.7026 O.2     
  32 O32           -0.6944    -2.5528    -6.8734 O.2     
  33 C33            0.3473    -2.3822    -9.3238 C.3     
  34 H34           -1.4902     1.0616     0.5092 H       
  35 H35           -1.3560    -1.3814     0.2628 H       
  36 H36            0.5596     2.3997     0.7282 H       
  37 H37            5.2591    -1.2122     0.5241 H       
  38 H38            6.5711     3.1618     1.0346 H       
  39 H39            4.1504    -3.1630     0.7026 H       
  40 H40            2.3748    -3.2262     0.8086 H       
  41 H41            0.8655    -3.6111    -3.4843 H       
  42 H42            5.1352    -3.8604    -3.8070 H       
  43 H43            5.2720    -3.2689    -1.3986 H       
  44 H44            0.6946    -4.0370    -5.2417 H       
  45 H45            2.5005    -5.0263    -8.9887 H       
  46 H46            4.7298    -4.8637    -7.9637 H       
  47 H47            4.9573    -4.2836    -5.5854 H       
  48 H48           -0.1822    -5.5063    -7.9734 H       
  49 H49            0.4068    -2.9707   -10.2394 H       
  50 H50           -0.1047    -1.4148    -9.5425 H       
  51 H51            1.3495    -2.2326    -8.9223 H       
@<TRIPOS>BOND
   1    1    2 ar
   2    1    6 ar
   3    1   34 1
   4    2    3 ar
   5    2   35 1
   6    3    4 ar
   7    3   23 1
   8    4    5 ar
   9    4    7 1
  10    5    6 ar
  11    5   10 1
  12    6   36 1
  13    7    8 1
  14    7   15 1
  15    8    9 2
  16    8   37 1
  17    9   10 1
  18    9   12 1
  19   10   11 2
  20   12   13 1
  21   12   14 2
  22   13   38 1
  23   15   16 1
  24   15   39 1
  25   15   40 1
  26   16   17 ar
  27   16   21 ar
  28   17   18 ar
  29   18   19 ar
  30   18   41 1
  31   19   20 ar
  32   19   22 1
  33   20   21 ar
  34   20   42 1
  35   21   43 1
  36   22   24 ar
  37   22   28 ar
  38   24   25 ar
  39   24   44 1
  40   25   26 ar
  41   25   29 1
  42   26   27 ar
  43   26   45 1
  44   27   28 ar
  45   27   46 1
  46   28   47 1
  47   29   30 am
  48   29   48 1
  49   30   31 2
  50   30   32 2
  51   30   33 1
  52   33   49 1
  53   33   50 1
  54   33   51 1

#	End of record

