#	Name: ASD06560014
#	Creating user name:	WinNT
#	Creation time:	15. 06. 2019 21:06

#	Modifying user name:	WinNT
#	Modification time:	15. 06. 2019 21:06

#	Program:	/corina/corina34_cracker 3.40 0067  02.08.2006

@<TRIPOS>MOLECULE
ASD06560014
  50   54    0    0    0
SMALL
NO_CHARGES


@<TRIPOS>ATOM
   1 C1            -0.0170     1.4034     0.0098 C.ar    
   2 C2             0.0021    -0.0041     0.0020 C.ar    
   3 N3             2.3589     0.0706    -0.0197 N.ar    
   4 C4             2.2983     1.3981    -0.0124 C.ar    
   5 N5             1.1380     2.0547     0.0022 N.ar    
   6 N6            -0.9509    -0.9663     0.0059 N.2     
   7 C7            -0.3846    -2.1382    -0.0058 C.2     
   8 N8             0.9721    -2.0002    -0.0180 N.pl3   
   9 C9             1.2483    -0.6555    -0.0134 C.ar    
  10 C10            1.7916    -3.9784     1.2161 C.3     
  11 C11            2.0423    -5.4260     0.7585 C.3     
  12 C12            2.3486    -5.3638    -0.7522 C.3     
  13 C13            1.6859    -4.0444    -1.2201 C.3     
  14 C14            1.9542    -3.0871    -0.0324 C.3     
  15 N15           -1.2167     2.0934     0.0192 N.pl3   
  16 C16           -1.2191     3.5583     0.0272 C.3     
  17 O17            3.7595    -5.3213    -0.9751 O.3     
  18 O18            2.3082    -3.5599    -2.4117 O.3     
  19 C19            2.8559    -6.3817     1.5926 C.2     
  20 O20            3.3280    -6.0150     2.6478 O.2     
  21 N21            3.0587    -7.6440     1.1660 N.am    
  22 C22            3.8496    -8.5731     1.9768 C.3     
  23 C23            3.5185     2.1475    -0.0196 C.1     
  24 C24            4.5189     2.7619    -0.0255 C.1     
  25 C25            0.6517    -4.9989     1.2324 C.3     
  26 C26            5.7391     3.5113    -0.0327 C.2     
  27 S27            7.3567     2.8212    -0.0585 S.3     
  28 C28            5.8292     4.8738    -0.0265 C.2     
  29 C29            7.1166     5.3584    -0.0365 C.2     
  30 C30            8.0773     4.4250    -0.0526 C.2     
  31 Br31           9.9345     4.7799    -0.0719 Br      
  32 H32           -0.9116    -3.0809    -0.0055 H       
  33 H33            2.1953    -3.6033     2.1565 H       
  34 H34            1.9057    -6.2166    -1.2666 H       
  35 H35            0.6152    -4.1822    -1.3709 H       
  36 H36            2.9660    -2.6851    -0.0850 H       
  37 H37           -2.0559     1.6069     0.0206 H       
  38 H38           -0.7102     3.9274    -0.8632 H       
  39 H39           -2.2474     3.9199     0.0341 H       
  40 H40           -0.7017     3.9177     0.9167 H       
  41 H41            4.0092    -5.2814    -1.9084 H       
  42 H42            2.2379    -4.1622    -3.1650 H       
  43 H43            2.6811    -7.9373     0.3220 H       
  44 H44            3.9041    -9.5386     1.4739 H       
  45 H45            4.8556    -8.1747     2.1085 H       
  46 H46            3.3776    -8.6972     2.9515 H       
  47 H47            0.3175    -5.3638     2.2036 H       
  48 H48           -0.1269    -4.8948     0.4767 H       
  49 H49            4.9620     5.5174    -0.0152 H       
  50 H50            7.3370     6.4157    -0.0331 H       
@<TRIPOS>BOND
   1    1    2 ar
   2    1    5 ar
   3    1   15 1
   4    2    9 ar
   5    2    6 1
   6    3    4 ar
   7    3    9 ar
   8    4    5 ar
   9    4   23 1
  10    6    7 2
  11    7    8 1
  12    7   32 1
  13    8    9 1
  14    8   14 1
  15   10   11 1
  16   10   14 1
  17   10   25 1
  18   10   33 1
  19   11   12 1
  20   11   19 1
  21   11   25 1
  22   12   13 1
  23   12   17 1
  24   12   34 1
  25   13   14 1
  26   13   18 1
  27   13   35 1
  28   14   36 1
  29   15   16 1
  30   15   37 1
  31   16   38 1
  32   16   39 1
  33   16   40 1
  34   17   41 1
  35   18   42 1
  36   19   20 2
  37   19   21 am
  38   21   22 1
  39   21   43 1
  40   22   44 1
  41   22   45 1
  42   22   46 1
  43   23   24 3
  44   24   26 1
  45   25   47 1
  46   25   48 1
  47   26   28 2
  48   26   27 1
  49   27   30 1
  50   28   29 1
  51   28   49 1
  52   29   30 2
  53   29   50 1
  54   30   31 1

#	End of record

