#	Name: ASD01870275
#	Creating user name:	WinNT
#	Creation time:	15. 06. 2019 19:38

#	Modifying user name:	WinNT
#	Modification time:	15. 06. 2019 19:38

#	Program:	/corina/corina34_cracker 3.40 0067  02.08.2006

@<TRIPOS>MOLECULE
ASD01870275
  60   64    0    0    0
SMALL
NO_CHARGES


@<TRIPOS>ATOM
   1 C1             0.0892     1.6865     0.7519 C.3     
   2 C2             0.1728     0.2308     0.2806 C.3     
   3 N3             1.4541     2.2262     0.8462 N.am    
   4 C4             2.4545     1.4600     1.6048 C.3     
   5 C5             2.4450     0.0133     1.0999 C.3     
   6 N6             1.0763    -0.5161     1.1659 N.3     
   7 C7            -0.7196     2.5071    -0.2548 C.3     
   8 S8             1.8541     3.6583     0.1171 S.o2    
   9 O9             3.2732     3.6988     0.1793 O.2     
  10 O10            1.1763     3.6173    -1.1311 O.2     
  11 C11            1.1334     4.9299     1.1914 C.3     
  12 C12            1.0513    -1.9514     0.8540 C.3     
  13 C13            1.4472    -2.1597    -0.5850 C.ar    
  14 C14            2.7854    -2.1417    -0.9561 C.ar    
  15 C15            0.4822    -2.3772    -1.5532 C.ar    
  16 C16            0.8930    -2.5643    -2.8675 C.ar    
  17 C17            2.2431    -2.5278    -3.1651 C.ar    
  18 N18            3.1385    -2.3240    -2.2176 N.ar    
  19 F19           -0.0162    -2.7799    -3.8433 F       
  20 O20            3.7406    -1.9345    -0.0146 O.3     
  21 C21            5.0427    -2.0342    -0.3935 C.ar    
  22 C22            5.6599    -3.2677    -0.4051 C.ar    
  23 C23            5.7421    -0.8903    -0.7729 C.ar    
  24 C24            7.0505    -0.9720    -1.1568 C.ar    
  25 C25            7.6959    -2.2039    -1.1721 C.ar    
  26 C26            7.0025    -3.3672    -0.7968 C.ar    
  27 Br27           4.7010    -4.8157     0.1050 Br      
  28 N28            8.9698    -2.6090    -1.4987 N.pl3   
  29 N29            9.0072    -3.9980    -1.3067 N.2     
  30 N30            7.8560    -4.4052    -0.9022 N.2     
  31 C31           10.0703    -1.7573    -1.9568 C.3     
  32 C32           10.8676    -1.2606    -0.7491 C.3     
  33 C33           12.1341    -0.4476    -1.0245 C.3     
  34 C34           10.8824     0.2461    -0.4834 C.3     
  35 H35           -0.3892     1.7276     1.7304 H       
  36 H36           -0.8197    -0.2188     0.3106 H       
  37 H37            0.5557     0.2002    -0.7395 H       
  38 H38            3.4422     1.8949     1.4514 H       
  39 H39            2.2034     1.4794     2.6653 H       
  40 H40            2.7963    -0.0143     0.0684 H       
  41 H41            3.1004    -0.5941     1.7241 H       
  42 H42           -1.7592     2.1802    -0.2383 H       
  43 H43           -0.6663     3.5629     0.0108 H       
  44 H44           -0.3092     2.3627    -1.2543 H       
  45 H45            1.5625     4.8479     2.1900 H       
  46 H46            1.3506     5.9167     0.7825 H       
  47 H47            0.0539     4.7893     1.2472 H       
  48 H48            1.7519    -2.4765     1.5033 H       
  49 H49            0.0458    -2.3406     1.0142 H       
  50 H50           -0.5657    -2.4012    -1.2932 H       
  51 H51            2.5688    -2.6725    -4.1846 H       
  52 H52            5.2456     0.0688    -0.7636 H       
  53 H53            7.5839    -0.0796    -1.4491 H       
  54 H54           10.7247    -2.3308    -2.6132 H       
  55 H55            9.6667    -0.9038    -2.5016 H       
  56 H56           10.8738    -1.9245     0.1154 H       
  57 H57           12.9734    -0.5764    -0.3411 H       
  58 H58           12.3993    -0.2666    -2.0662 H       
  59 H59           10.3241     0.8835    -1.1691 H       
  60 H60           10.8981     0.5737     0.5561 H       
@<TRIPOS>BOND
   1    1    2 1
   2    1    3 1
   3    1    7 1
   4    1   35 1
   5    2    6 1
   6    2   36 1
   7    2   37 1
   8    3    4 1
   9    3    8 am
  10    4    5 1
  11    4   38 1
  12    4   39 1
  13    5    6 1
  14    5   40 1
  15    5   41 1
  16    6   12 1
  17    7   42 1
  18    7   43 1
  19    7   44 1
  20    8    9 2
  21    8   10 2
  22    8   11 1
  23   11   45 1
  24   11   46 1
  25   11   47 1
  26   12   13 1
  27   12   48 1
  28   12   49 1
  29   13   14 ar
  30   13   15 ar
  31   14   20 1
  32   14   18 ar
  33   15   16 ar
  34   15   50 1
  35   16   17 ar
  36   16   19 1
  37   17   18 ar
  38   17   51 1
  39   20   21 1
  40   21   22 ar
  41   21   23 ar
  42   22   27 1
  43   22   26 ar
  44   23   24 ar
  45   23   52 1
  46   24   25 ar
  47   24   53 1
  48   25   26 ar
  49   25   28 1
  50   26   30 1
  51   28   29 1
  52   28   31 1
  53   29   30 2
  54   31   32 1
  55   31   54 1
  56   31   55 1
  57   32   33 1
  58   32   34 1
  59   32   56 1
  60   33   34 1
  61   33   57 1
  62   33   58 1
  63   34   59 1
  64   34   60 1

#	End of record

