#	Name: ASD04590124
#	Creating user name:	WinNT
#	Creation time:	15. 06. 2019 20:50

#	Modifying user name:	WinNT
#	Modification time:	15. 06. 2019 20:50

#	Program:	/corina/corina34_cracker 3.40 0067  02.08.2006

@<TRIPOS>MOLECULE
ASD04590124
  62   67    0    0    0
SMALL
NO_CHARGES


@<TRIPOS>ATOM
   1 N1            -0.0170     1.3235    -0.0111 N.ar    
   2 C2             0.0017    -0.0035    -0.0048 C.ar    
   3 N3             1.1296    -0.6948    -0.0122 N.ar    
   4 C4             2.3050    -0.0727    -0.0263 C.ar    
   5 C5             2.3190     1.3364    -0.0332 C.ar    
   6 C6             1.1070     2.0203    -0.0250 C.ar    
   7 N7             3.6031    -0.5196    -0.0364 N.pl3   
   8 C8             4.4824     0.5493    -0.0499 C.ar    
   9 C9             3.7313     1.7383    -0.0485 C.ar    
  10 C10            5.8681     0.6416    -0.0634 C.ar    
  11 N11            6.4614     1.8179    -0.0743 N.ar    
  12 C12            5.7851     2.9531    -0.0733 C.ar    
  13 C13            4.4065     2.9583    -0.0612 C.ar    
  14 N14           -1.2019    -0.6887     0.0103 N.pl3   
  15 C15           -2.4022     0.0122     0.1313 C.ar    
  16 C16            4.0015    -1.9293    -0.0334 C.3     
  17 N17           -2.3889     1.3195     0.3319 N.ar    
  18 N18           -3.4682     2.0042     0.4491 N.ar    
  19 C19           -4.6666     1.4483     0.3771 C.ar    
  20 C20           -4.7830     0.0732     0.1673 C.ar    
  21 C21           -3.6194    -0.6637     0.0353 C.ar    
  22 N22           -5.8097     2.2334     0.5110 N.3     
  23 C23            3.4001    -2.6458     1.1933 C.3     
  24 C24            3.4380    -2.6390    -1.2770 C.3     
  25 C25            2.5138    -3.7620    -0.7626 C.3     
  26 C26            2.1006    -3.2944     0.6550 C.3     
  27 C27           -6.6947     2.0766    -0.6503 C.3     
  28 C28           -5.4579     3.6431     0.7239 C.3     
  29 C29           -6.7267     4.4492     1.0109 C.3     
  30 C30           -7.6882     4.3170    -0.1734 C.3     
  31 C31           -8.0005     2.8359    -0.4044 C.3     
  32 C32           -8.9838     5.0709     0.1332 C.3     
  33 N33           -9.8568     5.0448    -1.0479 N.3     
  34 H34            1.0847     3.1001    -0.0304 H       
  35 H35            6.4646    -0.2587    -0.0647 H       
  36 H36            6.3205     3.8910    -0.0822 H       
  37 H37            3.8598     3.8897    -0.0604 H       
  38 H38           -1.2103    -1.6559    -0.0632 H       
  39 H39            5.0885    -2.0098    -0.0179 H       
  40 H40           -5.7517    -0.4003     0.1058 H       
  41 H41           -3.6520    -1.7307    -0.1285 H       
  42 H42            4.0839    -3.4105     1.5617 H       
  43 H43            3.1703    -1.9273     1.9801 H       
  44 H44            2.8681    -1.9345    -1.8827 H       
  45 H45            4.2514    -3.0647    -1.8646 H       
  46 H46            1.6372    -3.8580    -1.4032 H       
  47 H47            3.0545    -4.7070    -0.7101 H       
  48 H48            1.8086    -4.1441     1.2722 H       
  49 H49            1.2965    -2.5606     0.6007 H       
  50 H50           -6.2038     2.4762    -1.5377 H       
  51 H51           -6.9123     1.0192    -0.8009 H       
  52 H52           -4.7771     3.7235     1.5714 H       
  53 H53           -4.9727     4.0354    -0.1699 H       
  54 H54           -7.2050     4.0663     1.9124 H       
  55 H55           -6.4670     5.4981     1.1534 H       
  56 H56           -7.2251     4.7353    -1.0671 H       
  57 H57           -8.6508     2.7322    -1.2729 H       
  58 H58           -8.4988     2.4276     0.4749 H       
  59 H59           -9.4920     4.5940     0.9713 H       
  60 H60           -8.7507     6.1043     0.3900 H       
  61 H61          -10.0351     4.0971    -1.3449 H       
  62 H62          -10.7198     5.5366    -0.8706 H       
@<TRIPOS>BOND
   1    1    2 ar
   2    1    6 ar
   3    2    3 ar
   4    2   14 1
   5    3    4 ar
   6    4    5 ar
   7    4    7 1
   8    5    6 ar
   9    5    9 1
  10    6   34 1
  11    7    8 1
  12    7   16 1
  13    8    9 ar
  14    8   10 ar
  15    9   13 ar
  16   10   11 ar
  17   10   35 1
  18   11   12 ar
  19   12   13 ar
  20   12   36 1
  21   13   37 1
  22   14   15 1
  23   14   38 1
  24   15   17 ar
  25   15   21 ar
  26   16   24 1
  27   16   23 1
  28   16   39 1
  29   17   18 ar
  30   18   19 ar
  31   19   20 ar
  32   19   22 1
  33   20   21 ar
  34   20   40 1
  35   21   41 1
  36   22   28 1
  37   22   27 1
  38   23   26 1
  39   23   42 1
  40   23   43 1
  41   24   25 1
  42   24   44 1
  43   24   45 1
  44   25   26 1
  45   25   46 1
  46   25   47 1
  47   26   48 1
  48   26   49 1
  49   27   31 1
  50   27   50 1
  51   27   51 1
  52   28   29 1
  53   28   52 1
  54   28   53 1
  55   29   30 1
  56   29   54 1
  57   29   55 1
  58   30   31 1
  59   30   32 1
  60   30   56 1
  61   31   57 1
  62   31   58 1
  63   32   33 1
  64   32   59 1
  65   32   60 1
  66   33   61 1
  67   33   62 1

#	End of record

