#	Name: ASD01148509
#	Creating user name:	WinNT
#	Creation time:	15. 06. 2019 19:02

#	Modifying user name:	WinNT
#	Modification time:	15. 06. 2019 19:02

#	Program:	/corina/corina34_cracker 3.40 0067  02.08.2006

@<TRIPOS>MOLECULE
ASD01148509
  51   55    0    0    0
SMALL
NO_CHARGES


@<TRIPOS>ATOM
   1 C1            -0.0180     1.4347     0.0451 C.ar    
   2 C2            -0.0166     0.0527     0.0405 C.ar    
   3 C3             1.1824    -0.6376     0.0176 C.ar    
   4 C4             2.3790     0.0562    -0.0007 C.ar    
   5 C5             2.3764     1.4385     0.0038 C.ar    
   6 C6             1.1784     2.1275     0.0267 C.ar    
   7 C7             3.6799     2.1944    -0.0162 C.3     
   8 O8             4.6902     1.4619    -0.7387 O.3     
   9 C9             3.5592     3.4841    -0.8626 C.3     
  10 C10            4.0456     3.0305    -2.2259 C.2     
  11 N11            4.6593     1.9023    -2.0819 N.2     
  12 C12            3.8515     3.7515    -3.4955 C.ar    
  13 C13            4.3745     3.1986    -4.7425 C.ar    
  14 C14            3.1655     4.9581    -3.5158 C.ar    
  15 C15            2.9686     5.6565    -4.6937 C.ar    
  16 C16            3.4487     5.1808    -5.9063 C.ar    
  17 C17            4.1734     3.9128    -5.9473 C.ar    
  18 C18            3.2237     5.9468    -7.1450 C.2     
  19 O19            3.7355     5.5830    -8.1863 O.2     
  20 N20            2.4506     7.0506    -7.1237 N.am    
  21 C21            4.6748     3.3945    -7.1478 C.ar    
  22 C22            5.0673     1.9815    -4.7701 C.ar    
  23 C23            4.1465     2.5134     1.4056 C.3     
  24 F24            4.3127     1.3222     2.1202 F       
  25 F25            5.3644     3.1999     1.3538 F       
  26 F26            3.1891     3.3098     2.0430 F       
  27 Cl27           1.1849    -2.3736     0.0125 Cl      
  28 C28            2.2387     7.7722    -8.2905 C.ar    
  29 N29            1.4764     8.8543    -8.2516 N.ar    
  30 N30            2.8081     7.3648    -9.4146 N.ar    
  31 C31            2.6268     8.0292   -10.5439 C.ar    
  32 C32            1.8300     9.1635   -10.5404 C.ar    
  33 C33            1.2541     9.5646    -9.3451 C.ar    
  34 C34            5.5382     1.5017    -5.9561 C.ar    
  35 C35            5.3450     2.2073    -7.1407 C.ar    
  36 H36           -0.9538     1.9736     0.0585 H       
  37 H37           -0.9512    -0.4883     0.0552 H       
  38 H38            3.3152    -0.4821    -0.0182 H       
  39 H39            1.1768     3.2075     0.0303 H       
  40 H40            2.5230     3.8182    -0.9130 H       
  41 H41            4.2013     4.2697    -0.4644 H       
  42 H42            2.7766     5.3602    -2.5919 H       
  43 H43            2.4294     6.5920    -4.6694 H       
  44 H44            2.0424     7.3409    -6.2931 H       
  45 H45            4.5313     3.9319    -8.0736 H       
  46 H46            5.2278     1.4269    -3.8574 H       
  47 H47            3.0941     7.6923   -11.4574 H       
  48 H48            1.6652     9.7249   -11.4482 H       
  49 H49            0.6280    10.4438    -9.3079 H       
  50 H50            6.0722     0.5632    -5.9764 H       
  51 H51            5.7310     1.8082    -8.0671 H       
@<TRIPOS>BOND
   1    1    2 ar
   2    1    6 ar
   3    1   36 1
   4    2    3 ar
   5    2   37 1
   6    3    4 ar
   7    3   27 1
   8    4    5 ar
   9    4   38 1
  10    5    6 ar
  11    5    7 1
  12    6   39 1
  13    7    8 1
  14    7    9 1
  15    7   23 1
  16    8   11 1
  17    9   10 1
  18    9   40 1
  19    9   41 1
  20   10   11 2
  21   10   12 1
  22   12   13 ar
  23   12   14 ar
  24   13   22 ar
  25   13   17 ar
  26   14   15 ar
  27   14   42 1
  28   15   16 ar
  29   15   43 1
  30   16   17 ar
  31   16   18 1
  32   17   21 ar
  33   18   19 2
  34   18   20 am
  35   20   28 1
  36   20   44 1
  37   21   35 ar
  38   21   45 1
  39   22   34 ar
  40   22   46 1
  41   23   24 1
  42   23   25 1
  43   23   26 1
  44   28   29 ar
  45   28   30 ar
  46   29   33 ar
  47   30   31 ar
  48   31   32 ar
  49   31   47 1
  50   32   33 ar
  51   32   48 1
  52   33   49 1
  53   34   35 ar
  54   34   50 1
  55   35   51 1

#	End of record

