#	Name: ASD01200048
#	Creating user name:	WinNT
#	Creation time:	15. 06. 2019 19:08

#	Modifying user name:	WinNT
#	Modification time:	15. 06. 2019 19:08

#	Program:	/corina/corina34_cracker 3.40 0067  02.08.2006

@<TRIPOS>MOLECULE
ASD01200048
  37   39    0    0    0
SMALL
NO_CHARGES


@<TRIPOS>ATOM
   1 C1             0.0880     1.1820     0.0063 C.ar    
   2 C2            -0.0166    -0.1317     0.4534 C.ar    
   3 C3            -1.2501    -0.7435     0.5370 C.ar    
   4 C4            -2.3982    -0.0512     0.1743 C.ar    
   5 C5            -2.3002     1.2739    -0.2776 C.ar    
   6 C6            -1.0475     1.8876    -0.3531 C.ar    
   7 C7            -3.5134     2.0163    -0.6646 C.2     
   8 N8            -3.4335     3.3273    -0.9668 N.am    
   9 C9            -4.5767     4.0268    -1.3316 C.2     
  10 N10           -4.6102     5.2854    -1.6406 N.2     
  11 C11           -5.7863     5.7901    -1.9640 C.2     
  12 C12           -6.7942     4.9165    -1.9264 C.2     
  13 S13           -6.1434     3.3517    -1.4454 S.3     
  14 O14           -4.5864     1.4458    -0.7113 O.2     
  15 C15           -5.9754     7.2361    -2.3440 C.3     
  16 S16            1.6696     1.9519    -0.0957 S.3     
  17 N17           -3.6416    -0.6697     0.2581 N.pl3   
  18 C18            2.2377     1.4801    -1.6955 C.ar    
  19 N19            1.4205     0.8433    -2.5210 N.ar    
  20 C20            1.8062     0.4729    -3.7272 C.ar    
  21 C21            3.0852     0.7379    -4.1741 C.ar    
  22 C22            3.9735     1.4039    -3.3393 C.ar    
  23 C23            3.5394     1.7848    -2.0830 C.ar    
  24 H24            0.8728    -0.6752     0.7362 H       
  25 H25           -1.3232    -1.7633     0.8849 H       
  26 H26           -0.9642     2.9071    -0.6998 H       
  27 H27           -2.5777     3.7823    -0.9296 H       
  28 H28           -7.8279     5.1304    -2.1550 H       
  29 H29           -5.8521     7.3477    -3.4213 H       
  30 H30           -6.9762     7.5591    -2.0575 H       
  31 H31           -5.2347     7.8472    -1.8283 H       
  32 H32           -3.7038    -1.6376     0.2436 H       
  33 H33           -4.4463    -0.1330     0.3310 H       
  34 H34            1.1125    -0.0447    -4.3732 H       
  35 H35            3.3921     0.4302    -5.1628 H       
  36 H36            4.9794     1.6228    -3.6658 H       
  37 H37            4.2038     2.3045    -1.4085 H       
@<TRIPOS>BOND
   1    1    2 ar
   2    1   16 1
   3    1    6 ar
   4    2    3 ar
   5    2   24 1
   6    3    4 ar
   7    3   25 1
   8    4    5 ar
   9    4   17 1
  10    5    6 ar
  11    5    7 1
  12    6   26 1
  13    7    8 am
  14    7   14 2
  15    8    9 1
  16    8   27 1
  17    9   10 2
  18    9   13 1
  19   10   11 1
  20   11   12 2
  21   11   15 1
  22   12   13 1
  23   12   28 1
  24   15   29 1
  25   15   30 1
  26   15   31 1
  27   16   18 1
  28   17   32 1
  29   17   33 1
  30   18   19 ar
  31   18   23 ar
  32   19   20 ar
  33   20   21 ar
  34   20   34 1
  35   21   22 ar
  36   21   35 1
  37   22   23 ar
  38   22   36 1
  39   23   37 1

#	End of record

