#	Name: ASD01915474
#	Creating user name:	WinNT
#	Creation time:	15. 06. 2019 20:05

#	Modifying user name:	WinNT
#	Modification time:	15. 06. 2019 20:05

#	Program:	/corina/corina34_cracker 3.40 0067  02.08.2006

@<TRIPOS>MOLECULE
ASD01915474
  43   46    0    0    0
SMALL
NO_CHARGES


@<TRIPOS>ATOM
   1 C1            -0.1168     1.2159     0.1703 C.ar    
   2 C2            -0.0825    -0.1450     0.4124 C.ar    
   3 C3             1.1209    -0.8228     0.3834 C.ar    
   4 C4             2.2956    -0.1368     0.1112 C.ar    
   5 C5             2.2586     1.2286    -0.1313 C.ar    
   6 C6             1.0526     1.9018    -0.1012 C.ar    
   7 O7             3.4808    -0.8013     0.0827 O.3     
   8 C8             4.6497    -0.0309    -0.2041 C.3     
   9 C9             5.8590    -0.9300    -0.1932 C.ar    
  10 C10            6.2734    -1.5592    -1.3560 C.ar    
  11 C11            6.5717    -1.1312     0.9803 C.ar    
  12 C12            7.6741    -1.9652     0.9416 C.ar    
  13 C13            8.0226    -2.5825    -0.2584 C.ar    
  14 N14            7.3228    -2.3533    -1.3613 N.ar    
  15 C15            8.5098    -2.1972     2.1711 C.3     
  16 C16            9.0635    -3.6201     2.1683 C.3     
  17 N17            9.7065    -3.9276     0.8929 N.am    
  18 C18            9.1781    -3.5112    -0.2730 C.2     
  19 O19            9.6441    -3.8933    -1.3284 O.2     
  20 C20           10.8938    -4.6683     0.8832 C.ar    
  21 C21           10.8846    -6.0019     1.2704 C.ar    
  22 C22           12.0574    -6.7310     1.2601 C.ar    
  23 C23           13.2421    -6.1332     0.8642 C.ar    
  24 C24           13.2536    -4.8033     0.4782 C.ar    
  25 C25           12.0819    -4.0722     0.4810 C.ar    
  26 F26           14.3883    -6.8482     0.8549 F       
  27 H27           -1.0591     1.7432     0.1889 H       
  28 H28           -0.9973    -0.6785     0.6246 H       
  29 H29            1.1472    -1.8857     0.5730 H       
  30 H30            3.1718     1.7649    -0.3431 H       
  31 H31            1.0232     2.9647    -0.2903 H       
  32 H32            4.5488     0.4304    -1.1865 H       
  33 H33            4.7675     0.7457     0.5516 H       
  34 H34            5.7263    -1.3956    -2.2727 H       
  35 H35            6.2735    -0.6489     1.8995 H       
  36 H36            9.3370    -1.4875     2.1851 H       
  37 H37            7.8949    -2.0504     3.0591 H       
  38 H38            9.7935    -3.7219     2.9712 H       
  39 H39            8.2471    -4.3224     2.3363 H       
  40 H40            9.9609    -6.4685     1.5796 H       
  41 H41           12.0508    -7.7681     1.5615 H       
  42 H42           14.1787    -4.3389     0.1701 H       
  43 H43           12.0913    -3.0351     0.1800 H       
@<TRIPOS>BOND
   1    1    2 ar
   2    1    6 ar
   3    1   27 1
   4    2    3 ar
   5    2   28 1
   6    3    4 ar
   7    3   29 1
   8    4    5 ar
   9    4    7 1
  10    5    6 ar
  11    5   30 1
  12    6   31 1
  13    7    8 1
  14    8    9 1
  15    8   32 1
  16    8   33 1
  17    9   10 ar
  18    9   11 ar
  19   10   14 ar
  20   10   34 1
  21   11   12 ar
  22   11   35 1
  23   12   13 ar
  24   12   15 1
  25   13   14 ar
  26   13   18 1
  27   15   16 1
  28   15   36 1
  29   15   37 1
  30   16   17 1
  31   16   38 1
  32   16   39 1
  33   17   18 am
  34   17   20 1
  35   18   19 2
  36   20   21 ar
  37   20   25 ar
  38   21   22 ar
  39   21   40 1
  40   22   23 ar
  41   22   41 1
  42   23   24 ar
  43   23   26 1
  44   24   25 ar
  45   24   42 1
  46   25   43 1

#	End of record

