#	Name: ASD04882262
#	Creating user name:	WinNT
#	Creation time:	15. 06. 2019 20:54

#	Modifying user name:	WinNT
#	Modification time:	15. 06. 2019 20:54

#	Program:	/corina/corina34_cracker 3.40 0067  02.08.2006

@<TRIPOS>MOLECULE
ASD04882262
  86   91    0    0    0
SMALL
NO_CHARGES


@<TRIPOS>ATOM
   1 N1            -0.1359     1.5549    -0.0366 N.am    
   2 C2            -0.0762     0.1550    -0.0459 C.ar    
   3 C3            -1.2526    -0.5957     0.0296 C.ar    
   4 C4            -1.1949    -1.9847     0.0209 C.ar    
   5 C5             0.0211    -2.6259    -0.0622 C.ar    
   6 C6             1.2015    -1.8812    -0.1380 C.ar    
   7 C7             1.1457    -0.4845    -0.1356 C.ar    
   8 N8            -2.4843     0.0484     0.1142 N.3     
   9 C9            -2.6114     0.7772     1.3839 C.3     
  10 C10           -3.5899    -0.9047    -0.0556 C.3     
  11 C11           -4.9200    -0.1478    -0.0358 C.3     
  12 N12           -5.0470     0.5809     1.2340 N.3     
  13 C13           -3.9415     1.5341     1.4037 C.3     
  14 C14            2.5040    -2.5682    -0.2260 C.2     
  15 O15            3.5304    -1.9195    -0.2920 O.2     
  16 C16           -6.3464     1.2605     1.3232 C.3     
  17 C17           -7.4471     0.2333     1.3877 C.ar    
  18 C18            0.8460     2.2673     0.5506 C.2     
  19 C19            0.8492     3.7381     0.4524 C.2     
  20 O20            1.7295     1.6967     1.1615 O.2     
  21 C21            1.7708     4.5824     0.9910 C.2     
  22 N22           -0.0655     4.5068    -0.1986 N.2     
  23 C23            0.2728     5.7539    -0.0622 C.2     
  24 O24            1.3969     5.8299     0.6642 O.3     
  25 N25            2.5564    -3.9150    -0.2334 N.am    
  26 C26            3.8498    -4.5973    -0.3208 C.3     
  27 C27            3.6295    -6.1113    -0.3106 C.3     
  28 C28           -0.4778     6.9291    -0.6336 C.3     
  29 C29            4.9804    -6.8239    -0.4019 C.3     
  30 N30            4.7694    -8.2736    -0.3922 N.am    
  31 C31            4.5875    -9.0210    -1.4945 C.2     
  32 C32            4.3907   -10.4716    -1.1130 C.3     
  33 C33            4.0662   -10.4255     0.3982 C.3     
  34 C34            4.7358    -9.0973     0.8220 C.3     
  35 O35            4.5816    -8.5944    -2.6298 O.2     
  36 C36           -4.0952     2.2612     2.7411 C.3     
  37 C37           -8.1697    -0.0776     0.2512 C.ar    
  38 C38           -9.1796    -1.0200     0.3104 C.ar    
  39 C39           -9.4663    -1.6516     1.5059 C.ar    
  40 C40           -8.7429    -1.3413     2.6425 C.ar    
  41 C41           -7.7304    -0.4023     2.5824 C.ar    
  42 C42           -6.9418    -0.0641     3.8213 C.3     
  43 C43           -1.0156     7.9699     0.3505 C.3     
  44 C44            0.1846     8.3049    -0.5373 C.3     
  45 F45           -7.4150    -0.8232     4.8969 F       
  46 F46           -5.5897    -0.3519     3.6065 F       
  47 F47           -7.0887     1.2968     4.1105 F       
  48 H48           -0.8819     2.0113    -0.4561 H       
  49 H49           -2.1056    -2.5622     0.0797 H       
  50 H50            0.0628    -3.7051    -0.0684 H       
  51 H51            2.0561     0.0935    -0.1944 H       
  52 H52           -2.5827     0.0705     2.2133 H       
  53 H53           -1.7885     1.4855     1.4807 H       
  54 H54           -3.4804    -1.4227    -1.0084 H       
  55 H55           -3.5723    -1.6305     0.7574 H       
  56 H56           -4.9486     0.5589    -0.8652 H       
  57 H57           -5.7429    -0.8561    -0.1325 H       
  58 H58           -3.9590     2.2599     0.5907 H       
  59 H59           -6.3726     1.8780     2.2210 H       
  60 H60           -6.4881     1.8902     0.4449 H       
  61 H61            2.6378     4.3024     1.5709 H       
  62 H62            1.7376    -4.4325    -0.1808 H       
  63 H63            4.3508    -4.3092    -1.2450 H       
  64 H64            4.4682    -4.3144     0.5311 H       
  65 H65            3.1285    -6.3993     0.6136 H       
  66 H66            3.0112    -6.3942    -1.1625 H       
  67 H67           -1.0756     6.7189    -1.5205 H       
  68 H68            5.4814    -6.5358    -1.3261 H       
  69 H69            5.5987    -6.5410     0.4500 H       
  70 H70            3.5582   -10.9027    -1.6689 H       
  71 H71            5.3039   -11.0398    -1.2899 H       
  72 H72            2.9895   -10.3949     0.5652 H       
  73 H73            4.5165   -11.2701     0.9198 H       
  74 H74            5.7459    -9.2837     1.1868 H       
  75 H75            4.1413    -8.6038     1.5909 H       
  76 H76           -4.0766     1.5349     3.5538 H       
  77 H77           -3.2750     2.9681     2.8668 H       
  78 H78           -5.0434     2.7985     2.7557 H       
  79 H79           -7.9457     0.4159    -0.6829 H       
  80 H80           -9.7447    -1.2624    -0.5774 H       
  81 H81          -10.2556    -2.3872     1.5523 H       
  82 H82           -8.9671    -1.8345     3.5768 H       
  83 H83           -1.9671     8.4447     0.1108 H       
  84 H84           -0.8265     7.8046     1.4111 H       
  85 H85            1.1633     8.3600    -0.0608 H       
  86 H86            0.0227     9.0001    -1.3611 H       
@<TRIPOS>BOND
   1    1    2 1
   2    1   18 am
   3    1   48 1
   4    2    3 ar
   5    2    7 ar
   6    3    4 ar
   7    3    8 1
   8    4    5 ar
   9    4   49 1
  10    5    6 ar
  11    5   50 1
  12    6    7 ar
  13    6   14 1
  14    7   51 1
  15    8    9 1
  16    8   10 1
  17    9   13 1
  18    9   52 1
  19    9   53 1
  20   10   11 1
  21   10   54 1
  22   10   55 1
  23   11   12 1
  24   11   56 1
  25   11   57 1
  26   12   13 1
  27   12   16 1
  28   13   36 1
  29   13   58 1
  30   14   15 2
  31   14   25 am
  32   16   17 1
  33   16   59 1
  34   16   60 1
  35   17   37 ar
  36   17   41 ar
  37   18   20 2
  38   18   19 1
  39   19   21 2
  40   19   22 1
  41   21   24 1
  42   21   61 1
  43   22   23 2
  44   23   24 1
  45   23   28 1
  46   25   26 1
  47   25   62 1
  48   26   27 1
  49   26   63 1
  50   26   64 1
  51   27   29 1
  52   27   65 1
  53   27   66 1
  54   28   43 1
  55   28   44 1
  56   28   67 1
  57   29   30 1
  58   29   68 1
  59   29   69 1
  60   30   31 am
  61   30   34 1
  62   31   32 1
  63   31   35 2
  64   32   33 1
  65   32   70 1
  66   32   71 1
  67   33   34 1
  68   33   72 1
  69   33   73 1
  70   34   74 1
  71   34   75 1
  72   36   76 1
  73   36   77 1
  74   36   78 1
  75   37   38 ar
  76   37   79 1
  77   38   39 ar
  78   38   80 1
  79   39   40 ar
  80   39   81 1
  81   40   41 ar
  82   40   82 1
  83   41   42 1
  84   42   45 1
  85   42   46 1
  86   42   47 1
  87   43   44 1
  88   43   83 1
  89   43   84 1
  90   44   85 1
  91   44   86 1

#	End of record

