#	Name: ASD05790023
#	Creating user name:	WinNT
#	Creation time:	15. 06. 2019 21:03

#	Modifying user name:	WinNT
#	Modification time:	15. 06. 2019 21:03

#	Program:	/corina/corina34_cracker 3.40 0067  02.08.2006

@<TRIPOS>MOLECULE
ASD05790023
  45   48    0    0    0
SMALL
NO_CHARGES


@<TRIPOS>ATOM
   1 C1            -0.1751     1.4731    -0.5691 C.2     
   2 C2            -0.1531    -0.0033    -0.5729 C.ar    
   3 C3             0.4696    -0.6992     0.4670 C.ar    
   4 C4             0.4861    -2.0799     0.4562 C.ar    
   5 C5            -0.1117    -2.7743    -0.5802 C.ar    
   6 C6            -0.7296    -2.0927    -1.6132 C.ar    
   7 C7            -0.7598    -0.7121    -1.6135 C.ar    
   8 O8             0.7234     2.0959    -1.1010 O.2     
   9 N9            -1.1942     2.1303     0.0193 N.am    
  10 C10           -1.1619     3.5227     0.1191 C.ar    
  11 C11           -2.3411     4.2529     0.0191 C.ar    
  12 C12           -2.3127     5.6268     0.1171 C.ar    
  13 C13           -1.0979     6.2861     0.3173 C.ar    
  14 C14            0.0846     5.5497     0.4174 C.ar    
  15 C15            0.0486     4.1757     0.3241 C.ar    
  16 O16           -2.1300     8.5741     0.3426 O.3     
  17 C17           -1.0637     7.7593     0.4224 C.2     
  18 N18            0.0116     8.4861     0.6097 N.2     
  19 C19           -0.3498     9.7854     0.6532 C.2     
  20 C20           -1.6951     9.8411     0.4854 C.2     
  21 C21           -2.5434    11.0865     0.4630 C.3     
  22 F22           -2.6399    11.5615    -0.8493 F       
  23 F23           -3.8220    10.7885     0.9462 F       
  24 F24           -1.9559    12.0656     1.2713 F       
  25 C25            0.5584    10.9425     0.8492 C.ar    
  26 C26            1.6699    10.8259     1.6815 C.ar    
  27 C27            2.5112    11.9052     1.8603 C.ar    
  28 C28            2.2528    13.1012     1.2151 C.ar    
  29 C29            1.1509    13.2225     0.3877 C.ar    
  30 C30            0.3061    12.1479     0.1972 C.ar    
  31 Cl31          -1.5431     0.1410    -2.9067 Cl      
  32 Cl32           1.2209     0.1701     1.7684 Cl      
  33 H33            0.9672    -2.6191     1.2589 H       
  34 H34           -0.0955    -3.8542    -0.5830 H       
  35 H35           -1.1935    -2.6417    -2.4193 H       
  36 H36           -1.9500     1.6360     0.3734 H       
  37 H37           -3.2802     3.7425    -0.1361 H       
  38 H38           -3.2288     6.1934     0.0390 H       
  39 H39            1.0256     6.0566     0.5722 H       
  40 H40            0.9621     3.6054     0.4058 H       
  41 H41            1.8724     9.8927     2.1861 H       
  42 H42            3.3728    11.8161     2.5054 H       
  43 H43            2.9136    13.9434     1.3581 H       
  44 H44            0.9536    14.1587    -0.1133 H       
  45 H45           -0.5512    12.2422    -0.4528 H       
@<TRIPOS>BOND
   1    1    2 1
   2    1    8 2
   3    1    9 am
   4    2    3 ar
   5    2    7 ar
   6    3    4 ar
   7    3   32 1
   8    4    5 ar
   9    4   33 1
  10    5    6 ar
  11    5   34 1
  12    6    7 ar
  13    6   35 1
  14    7   31 1
  15    9   10 1
  16    9   36 1
  17   10   11 ar
  18   10   15 ar
  19   11   12 ar
  20   11   37 1
  21   12   13 ar
  22   12   38 1
  23   13   14 ar
  24   13   17 1
  25   14   15 ar
  26   14   39 1
  27   15   40 1
  28   16   17 1
  29   16   20 1
  30   17   18 2
  31   18   19 1
  32   19   20 2
  33   19   25 1
  34   20   21 1
  35   21   22 1
  36   21   23 1
  37   21   24 1
  38   25   26 ar
  39   25   30 ar
  40   26   27 ar
  41   26   41 1
  42   27   28 ar
  43   27   42 1
  44   28   29 ar
  45   28   43 1
  46   29   30 ar
  47   29   44 1
  48   30   45 1

#	End of record

