#	Name: ASD05430075
#	Creating user name:	WinNT
#	Creation time:	15. 06. 2019 20:59

#	Modifying user name:	WinNT
#	Modification time:	15. 06. 2019 20:59

#	Program:	/corina/corina34_cracker 3.40 0067  02.08.2006

@<TRIPOS>MOLECULE
ASD05430075
  63   69    0    0    0
SMALL
NO_CHARGES


@<TRIPOS>ATOM
   1 C1             0.0643     1.1597     0.4247 C.ar    
   2 C2             0.0197    -0.0127    -0.3264 C.ar    
   3 C3             1.1611    -0.4724    -0.9681 C.ar    
   4 C4             2.3503     0.2227    -0.8711 C.ar    
   5 C5             2.4186     1.3996    -0.1242 C.ar    
   6 C6             1.2629     1.8747     0.5318 C.ar    
   7 C7             4.8769    -0.0391     0.2060 C.3     
   8 C8             4.8514     1.4670     0.0664 C.2     
   9 C9             3.6839     2.1380    -0.0211 C.2     
  10 C10            6.2144    -0.4736     0.8127 C.3     
  11 C11            6.9065     0.5519     1.7175 C.3     
  12 N12            7.1146     1.7862     0.9570 N.pl3   
  13 C13            6.1383     2.1770     0.0296 C.2     
  14 N14           -1.1798    -0.7293    -0.4338 N.pl3   
  15 C15           -1.7599    -1.1782    -1.5920 C.2     
  16 C16           -2.8938    -1.8137    -1.2394 C.2     
  17 N17           -3.0076    -1.7573     0.0958 N.2     
  18 C18           -1.9841    -1.1155     0.5903 C.2     
  19 C19           -3.8668    -2.4736    -2.1822 C.3     
  20 C20           -0.2474     2.9248     1.6664 C.2     
  21 O21           -0.8521     1.8479     1.1413 O.3     
  22 C22            8.2923     2.6278     1.1665 C.3     
  23 C23            8.7843     3.1380    -0.1928 C.3     
  24 N24            7.6518     3.6810    -0.9467 N.pl3   
  25 N25            6.3807     3.1053    -0.8430 N.2     
  26 C26            7.9273     3.7981     2.0430 C.ar    
  27 C27            8.8866     4.7350     2.3791 C.ar    
  28 C28            6.6320     3.9368     2.5057 C.ar    
  29 C29            6.2958     5.0101     3.3088 C.ar    
  30 C30            7.2570     5.9463     3.6504 C.ar    
  31 C31            8.5529     5.8089     3.1824 C.ar    
  32 F32            6.9296     6.9959     4.4355 F       
  33 C33            9.3963     1.8071     1.8361 C.3     
  34 C34            6.3710    -1.9510     1.1815 C.3     
  35 C35            7.1089    -1.3831    -0.0322 C.3     
  36 N36            1.0035     2.9538     1.3126 N.2     
  37 H37            1.1190    -1.3823    -1.5484 H       
  38 H38            3.2313    -0.1462    -1.3752 H       
  39 H39            4.0624    -0.3575     0.8566 H       
  40 H40            4.7576    -0.4970    -0.7759 H       
  41 H41            3.6799     3.2180    -0.0155 H       
  42 H42            6.2779     0.7580     2.5838 H       
  43 H43            7.8684     0.1588     2.0464 H       
  44 H44           -1.3806    -1.0473    -2.5946 H       
  45 H45           -1.8098    -0.9181     1.6377 H       
  46 H46           -3.5814    -3.5153    -2.3283 H       
  47 H47           -4.8704    -2.4276    -1.7594 H       
  48 H48           -3.8523    -1.9550    -3.1408 H       
  49 H49           -0.7310     3.6632     2.2887 H       
  50 H50            9.5281     3.9200    -0.0403 H       
  51 H51            9.2309     2.3146    -0.7503 H       
  52 H52            7.7845     4.4489    -1.5243 H       
  53 H53            9.8973     4.6276     2.0139 H       
  54 H54            5.8824     3.2065     2.2392 H       
  55 H55            5.2837     5.1187     3.6696 H       
  56 H56            9.3035     6.5383     3.4485 H       
  57 H57            9.6617     0.9650     1.1968 H       
  58 H58           10.2731     2.4358     1.9914 H       
  59 H59            9.0408     1.4356     2.7972 H       
  60 H60            6.9636    -2.1891     2.0648 H       
  61 H61            5.5233    -2.6095     0.9922 H       
  62 H62            6.7469    -1.6682    -1.0200 H       
  63 H63            8.1872    -1.2478     0.0525 H       
@<TRIPOS>BOND
   1    1    2 ar
   2    1    6 ar
   3    1   21 1
   4    2    3 ar
   5    2   14 1
   6    3    4 ar
   7    3   37 1
   8    4    5 ar
   9    4   38 1
  10    5    6 ar
  11    5    9 1
  12    6   36 1
  13    7    8 1
  14    7   10 1
  15    7   39 1
  16    7   40 1
  17    8    9 2
  18    8   13 1
  19    9   41 1
  20   10   11 1
  21   10   34 1
  22   10   35 1
  23   11   12 1
  24   11   42 1
  25   11   43 1
  26   12   13 1
  27   12   22 1
  28   13   25 2
  29   14   15 1
  30   14   18 1
  31   15   16 2
  32   15   44 1
  33   16   17 1
  34   16   19 1
  35   17   18 2
  36   18   45 1
  37   19   46 1
  38   19   47 1
  39   19   48 1
  40   20   21 1
  41   20   36 2
  42   20   49 1
  43   22   23 1
  44   22   26 1
  45   22   33 1
  46   23   24 1
  47   23   50 1
  48   23   51 1
  49   24   25 1
  50   24   52 1
  51   26   27 ar
  52   26   28 ar
  53   27   31 ar
  54   27   53 1
  55   28   29 ar
  56   28   54 1
  57   29   30 ar
  58   29   55 1
  59   30   31 ar
  60   30   32 1
  61   31   56 1
  62   33   57 1
  63   33   58 1
  64   33   59 1
  65   34   35 1
  66   34   60 1
  67   34   61 1
  68   35   62 1
  69   35   63 1

#	End of record

