#	Name: ASD03240790
#	Creating user name:	WinNT
#	Creation time:	15. 06. 2019 20:35

#	Modifying user name:	WinNT
#	Modification time:	15. 06. 2019 20:35

#	Program:	/corina/corina34_cracker 3.40 0067  02.08.2006

@<TRIPOS>MOLECULE
ASD03240790
  76   82    0    0    0
SMALL
NO_CHARGES


@<TRIPOS>ATOM
   1 N1             0.1448     1.8840     0.0347 N.3     
   2 C2            -0.0709     0.4363     0.1538 C.3     
   3 C3             0.6011    -0.0777     1.4291 C.3     
   4 C4             2.0997     0.2308     1.3704 C.3     
   5 C5             2.2959     1.7395     1.1977 C.3     
   6 C6             1.5748     2.2008    -0.0709 C.3     
   7 C7             2.7570    -0.2194     2.6496 C.2     
   8 O8             2.0932    -0.7363     3.5232 O.2     
   9 N9             4.0825    -0.0476     2.8228 N.am    
  10 C10           -0.6021     2.4357    -1.1035 C.3     
  11 C11           -0.5581     3.9411    -1.0511 C.ar    
  12 C12            0.4637     4.6230    -1.6875 C.ar    
  13 C13            0.5093     6.0013    -1.6435 C.ar    
  14 C14           -0.4777     6.7072    -0.9555 C.ar    
  15 C15           -1.5053     6.0140    -0.3159 C.ar    
  16 C16           -1.5428     4.6358    -0.3716 C.ar    
  17 C17            2.1149    12.1213    -0.6962 C.2     
  18 N18            1.0085    12.8858    -0.7019 N.2     
  19 C19           -0.1919    12.3688    -0.7540 C.2     
  20 C20           -0.3374    10.9157    -0.8084 C.ar    
  21 C21            0.8276    10.1188    -0.8016 C.ar    
  22 N22            2.0527    10.7550    -0.7444 N.pl3   
  23 C23           -1.5938    10.3038    -0.8657 C.ar    
  24 C24           -1.6401     8.9142    -0.9143 C.ar    
  25 C25           -0.4344     8.1865    -0.9040 C.ar    
  26 N26            0.7378     8.8014    -0.8494 N.ar    
  27 N27            3.3641    10.2648    -0.7229 N.2     
  28 C28            4.1935    11.2789    -0.6644 C.2     
  29 C29            3.4604    12.4587    -0.6403 C.2     
  30 C30           -2.9423     8.2082    -0.9756 C.ar    
  31 C31           -3.9531     8.5247    -0.0693 C.ar    
  32 C32           -5.1634     7.8646    -0.1315 C.ar    
  33 C33           -5.3744     6.8902    -1.0904 C.ar    
  34 C34           -4.3749     6.5717    -1.9921 C.ar    
  35 C35           -3.1627     7.2295    -1.9434 C.ar    
  36 C36            5.6967    11.1802    -0.6240 C.3     
  37 C37            4.6764    -0.3752     4.0467 C.ar    
  38 C38            4.2156    -1.4641     4.7728 C.ar    
  39 C39            4.8072    -1.7857     5.9861 C.ar    
  40 C40            5.8588    -1.0165     6.4701 C.ar    
  41 C41            6.3149     0.0668     5.7446 C.ar    
  42 C42            5.7315     0.3860     4.5333 C.ar    
  43 N43            4.3461    -2.8807     6.7203 N.pl3   
  44 H44           -1.1405     0.2310     0.1988 H       
  45 H45            0.3593    -0.0674    -0.7118 H       
  46 H46            0.1617     0.4156     2.2961 H       
  47 H47            0.4541    -1.1548     1.5091 H       
  48 H48            2.5467    -0.2937     0.5259 H       
  49 H49            1.8832     2.2613     2.0611 H       
  50 H50            3.3598     1.9607     1.1123 H       
  51 H51            1.9973     1.6888    -0.9354 H       
  52 H52            1.7005     3.2771    -0.1891 H       
  53 H53            4.6248     0.3031     2.0991 H       
  54 H54           -0.1521     2.0912    -2.0347 H       
  55 H55           -1.6382     2.1006    -1.0550 H       
  56 H56            1.2275     4.0753    -2.2195 H       
  57 H57            1.3077     6.5325    -2.1403 H       
  58 H58           -2.2721     6.5550     0.2186 H       
  59 H59           -2.3402     4.0981     0.1198 H       
  60 H60           -1.0633    13.0068    -0.7569 H       
  61 H61           -2.4997    10.8917    -0.8714 H       
  62 H62            3.8647    13.4588    -0.5892 H       
  63 H63           -3.7892     9.2847     0.6803 H       
  64 H64           -5.9473     8.1089     0.5702 H       
  65 H65           -6.3231     6.3760    -1.1351 H       
  66 H66           -4.5451     5.8098    -2.7385 H       
  67 H67           -2.3846     6.9832    -2.6508 H       
  68 H68            6.0890    11.1918    -1.6409 H       
  69 H69            6.1016    12.0263    -0.0688 H       
  70 H70            5.9868    10.2512    -0.1332 H       
  71 H71            3.3981    -2.0600     4.3946 H       
  72 H72            6.3195    -1.2659     7.4145 H       
  73 H73            7.1320     0.6632     6.1229 H       
  74 H74            6.0934     1.2310     3.9663 H       
  75 H75            3.6120    -3.4170     6.3822 H       
  76 H76            4.7601    -3.1050     7.5684 H       
@<TRIPOS>BOND
   1    1    2 1
   2    1    6 1
   3    1   10 1
   4    2    3 1
   5    2   44 1
   6    2   45 1
   7    3    4 1
   8    3   46 1
   9    3   47 1
  10    4    5 1
  11    4    7 1
  12    4   48 1
  13    5    6 1
  14    5   49 1
  15    5   50 1
  16    6   51 1
  17    6   52 1
  18    7    8 2
  19    7    9 am
  20    9   37 1
  21    9   53 1
  22   10   11 1
  23   10   54 1
  24   10   55 1
  25   11   12 ar
  26   11   16 ar
  27   12   13 ar
  28   12   56 1
  29   13   14 ar
  30   13   57 1
  31   14   15 ar
  32   14   25 1
  33   15   16 ar
  34   15   58 1
  35   16   59 1
  36   17   18 1
  37   17   22 1
  38   17   29 2
  39   18   19 2
  40   19   20 1
  41   19   60 1
  42   20   21 ar
  43   20   23 ar
  44   21   22 1
  45   21   26 ar
  46   22   27 1
  47   23   24 ar
  48   23   61 1
  49   24   25 ar
  50   24   30 1
  51   25   26 ar
  52   27   28 2
  53   28   29 1
  54   28   36 1
  55   29   62 1
  56   30   31 ar
  57   30   35 ar
  58   31   32 ar
  59   31   63 1
  60   32   33 ar
  61   32   64 1
  62   33   34 ar
  63   33   65 1
  64   34   35 ar
  65   34   66 1
  66   35   67 1
  67   36   68 1
  68   36   69 1
  69   36   70 1
  70   37   38 ar
  71   37   42 ar
  72   38   39 ar
  73   38   71 1
  74   39   40 ar
  75   39   43 1
  76   40   41 ar
  77   40   72 1
  78   41   42 ar
  79   41   73 1
  80   42   74 1
  81   43   75 1
  82   43   76 1

#	End of record

