#	Name: ASD05143321
#	Creating user name:	WinNT
#	Creation time:	15. 06. 2019 20:57

#	Modifying user name:	WinNT
#	Modification time:	15. 06. 2019 20:57

#	Program:	/corina/corina34_cracker 3.40 0067  02.08.2006

@<TRIPOS>MOLECULE
ASD05143321
  44   46    0    0    0
SMALL
NO_CHARGES


@<TRIPOS>ATOM
   1 C1            -0.1608     1.4587     0.1418 C.2     
   2 N2             0.0792     0.2072    -0.1954 N.2     
   3 S3            -1.4420    -0.5444    -0.2876 S.3     
   4 C4            -2.3268     0.8718     0.1345 C.2     
   5 N5            -1.4207     1.8061     0.3197 N.2     
   6 N6            -3.6985     0.9980     0.2573 N.pl3   
   7 C7            -4.2505     2.1885     0.7393 C.ar    
   8 C8            -5.5486     2.5511     0.4017 C.ar    
   9 N9            -6.0720     3.6728     0.8538 N.ar    
  10 C10           -5.3947     4.4897     1.6371 C.ar    
  11 C11           -4.0981     4.1976     2.0170 C.ar    
  12 C12           -3.5095     3.0260     1.5695 C.ar    
  13 C13            1.3030    -0.3689    -0.4250 C.ar    
  14 C14            2.1522     0.1545    -1.3996 C.ar    
  15 C15            1.7084    -1.4819     0.3222 C.ar    
  16 C16            2.9451    -2.0559     0.0837 C.ar    
  17 C17            3.7772    -1.5313    -0.8888 C.ar    
  18 C18            3.3825    -0.4290    -1.6258 C.ar    
  19 C19            0.9403     2.4338     0.3196 C.ar    
  20 C20            0.7413     3.7787     0.0092 C.ar    
  21 C21            2.1781     2.0114     0.8037 C.ar    
  22 C22            3.1996     2.9244     0.9677 C.ar    
  23 C23            2.9978     4.2564     0.6530 C.ar    
  24 C24            1.7705     4.6823     0.1774 C.ar    
  25 O25            0.8907    -1.9961     1.2782 O.3     
  26 C26            1.3709    -3.1320     2.0002 C.3     
  27 H27           -4.2775     0.2604     0.0091 H       
  28 H28           -6.1343     1.9074    -0.2377 H       
  29 H29           -5.8595     5.3999     1.9862 H       
  30 H30           -3.5516     4.8730     2.6584 H       
  31 H31           -2.4980     2.7725     1.8506 H       
  32 H32            1.8475     1.0149    -1.9769 H       
  33 H33            3.2610    -2.9143     0.6580 H       
  34 H34            4.7414    -1.9823    -1.0712 H       
  35 H35            4.0380    -0.0258    -2.3836 H       
  36 H36           -0.2163     4.1124    -0.3625 H       
  37 H37            2.3367     0.9719     1.0501 H       
  38 H38            4.1585     2.5986     1.3429 H       
  39 H39            3.8002     4.9673     0.7834 H       
  40 H40            1.6189     5.7234    -0.0666 H       
  41 H41            1.5605    -3.9504     1.3058 H       
  42 H42            2.2955    -2.8709     2.5152 H       
  43 H43            0.6231    -3.4410     2.7306 H       
  44 Br44           9.7414    10.7234     7.7306 Br      
@<TRIPOS>BOND
   1    1    2 2
   2    1   19 1
   3    1    5 1
   4    2    3 1
   5    2   13 1
   6    3    4 1
   7    4    5 2
   8    4    6 1
   9    6    7 1
  10    6   27 1
  11    7    8 ar
  12    7   12 ar
  13    8    9 ar
  14    8   28 1
  15    9   10 ar
  16   10   11 ar
  17   10   29 1
  18   11   12 ar
  19   11   30 1
  20   12   31 1
  21   13   14 ar
  22   13   15 ar
  23   14   18 ar
  24   14   32 1
  25   15   16 ar
  26   15   25 1
  27   16   17 ar
  28   16   33 1
  29   17   18 ar
  30   17   34 1
  31   18   35 1
  32   19   20 ar
  33   19   21 ar
  34   20   24 ar
  35   20   36 1
  36   21   22 ar
  37   21   37 1
  38   22   23 ar
  39   22   38 1
  40   23   24 ar
  41   23   39 1
  42   24   40 1
  43   25   26 1
  44   26   41 1
  45   26   42 1
  46   26   43 1

#	End of record

