#	Name: ASD01200339
#	Creating user name:	WinNT
#	Creation time:	15. 06. 2019 19:09

#	Modifying user name:	WinNT
#	Modification time:	15. 06. 2019 19:09

#	Program:	/corina/corina34_cracker 3.40 0067  02.08.2006

@<TRIPOS>MOLECULE
ASD01200339
  62   66    0    0    0
SMALL
NO_CHARGES


@<TRIPOS>ATOM
   1 C1            -0.0167     1.3781     0.0096 C.ar    
   2 C2             0.0021    -0.0041     0.0020 C.ar    
   3 C3             1.2084    -0.6789    -0.0132 C.ar    
   4 C4             2.3961     0.0285    -0.0212 C.ar    
   5 C5             2.3773     1.4107    -0.0145 C.ar    
   6 C6             1.1709     2.0855     0.0021 C.ar    
   7 C7             1.1505     3.5924     0.0099 C.3     
   8 C8             1.8764     4.1058     1.2550 C.3     
   9 C9             1.8425     4.1106    -1.2245 C.2     
  10 C10            1.7484     5.6287     1.3284 C.3     
  11 C11            0.4635     7.4446     2.2814 C.3     
  12 C12            0.2918     6.0347     1.6636 C.3     
  13 C13            2.5764     6.1840     2.5057 C.3     
  14 C14            1.7594     7.3386     3.1116 C.3     
  15 C15            1.2257     4.4604    -2.3642 C.2     
  16 N16            3.1929     4.2999    -1.3477 N.pl3   
  17 C17            2.2675     4.9042    -3.2919 C.ar    
  18 C18            2.2666     5.3804    -4.6047 C.ar    
  19 C19            3.4881     4.7828    -2.6000 C.ar    
  20 N20            4.6223     5.1203    -3.1988 N.ar    
  21 C21            4.6437     5.5685    -4.4361 C.ar    
  22 C22            3.4806     5.7129    -5.1763 C.ar    
  23 P23            1.2330    -2.4927    -0.0219 P.3     
  24 O24            2.7611    -3.0335     0.0932 O.3     
  25 O25            0.4620    -3.0705     1.2866 O.3     
  26 C26            2.9941    -4.3679     0.5810 C.3     
  27 C27            2.2730    -4.5428     1.9181 C.3     
  28 C28            0.7606    -4.4038     1.7403 C.3     
  29 O29            0.6014    -3.0054    -1.2583 O.2     
  30 C30            2.5885    -5.9293     2.4829 C.3     
  31 C31            2.7650    -3.4766     2.8989 C.3     
  32 H32           -0.9592     1.9054     0.0170 H       
  33 H33           -0.9258    -0.5567     0.0083 H       
  34 H34            3.3386    -0.4987    -0.0324 H       
  35 H35            3.3052     1.9634    -0.0205 H       
  36 H36            0.1181     3.9417     0.0214 H       
  37 H37            1.4312     3.6605     2.1447 H       
  38 H38            2.9301     3.8320     1.2001 H       
  39 H39            2.0669     6.0830     0.3902 H       
  40 H40            0.5729     8.1939     1.4974 H       
  41 H41           -0.3831     7.6849     2.9247 H       
  42 H42           -0.3144     6.0806     0.7588 H       
  43 H43           -0.1443     5.3462     2.3875 H       
  44 H44            2.7329     5.4053     3.2522 H       
  45 H45            3.5360     6.5545     2.1452 H       
  46 H46            2.3225     8.2695     3.0453 H       
  47 H47            1.5194     7.1202     4.1522 H       
  48 H48            0.1642     4.4218    -2.5593 H       
  49 H49            3.8455     4.1197    -0.6530 H       
  50 H50            1.3446     5.4855    -5.1573 H       
  51 H51            5.5901     5.8322    -4.8848 H       
  52 H52            3.5222     6.0844    -6.1895 H       
  53 H53            2.6096    -5.0913    -0.1380 H       
  54 H54            4.0638    -4.5236     0.7205 H       
  55 H55            0.2633    -4.5847     2.6932 H       
  56 H56            0.4122    -5.1266     1.0026 H       
  57 H57            3.6640    -6.0246     2.6323 H       
  58 H58            2.0763    -6.0583     3.4364 H       
  59 H59            2.2499    -6.6926     1.7824 H       
  60 H60            2.5526    -2.4864     2.4958 H       
  61 H61            2.2534    -3.5975     3.8538 H       
  62 H62            3.8395    -3.5862     3.0459 H       
@<TRIPOS>BOND
   1    1    2 ar
   2    1    6 ar
   3    1   32 1
   4    2    3 ar
   5    2   33 1
   6    3    4 ar
   7    3   23 1
   8    4    5 ar
   9    4   34 1
  10    5    6 ar
  11    5   35 1
  12    6    7 1
  13    7    8 1
  14    7    9 1
  15    7   36 1
  16    8   10 1
  17    8   37 1
  18    8   38 1
  19    9   16 1
  20    9   15 2
  21   10   13 1
  22   10   12 1
  23   10   39 1
  24   11   12 1
  25   11   14 1
  26   11   40 1
  27   11   41 1
  28   12   42 1
  29   12   43 1
  30   13   14 1
  31   13   44 1
  32   13   45 1
  33   14   46 1
  34   14   47 1
  35   15   17 1
  36   15   48 1
  37   16   19 1
  38   16   49 1
  39   17   19 ar
  40   17   18 ar
  41   18   22 ar
  42   18   50 1
  43   19   20 ar
  44   20   21 ar
  45   21   22 ar
  46   21   51 1
  47   22   52 1
  48   23   24 1
  49   23   29 2
  50   23   25 1
  51   24   26 1
  52   25   28 1
  53   26   27 1
  54   26   53 1
  55   26   54 1
  56   27   28 1
  57   27   30 1
  58   27   31 1
  59   28   55 1
  60   28   56 1
  61   30   57 1
  62   30   58 1
  63   30   59 1
  64   31   60 1
  65   31   61 1
  66   31   62 1

#	End of record

