#	Name: ASD01150876
#	Creating user name:	WinNT
#	Creation time:	15. 06. 2019 19:05

#	Modifying user name:	WinNT
#	Modification time:	15. 06. 2019 19:05

#	Program:	/corina/corina34_cracker 3.40 0067  02.08.2006

@<TRIPOS>MOLECULE
ASD01150876
  49   51    0    0    0
SMALL
NO_CHARGES


@<TRIPOS>ATOM
   1 C1            -0.0180     1.4738     0.0101 C.ar    
   2 C2             0.0021    -0.0041     0.0020 C.2     
   3 N3            -1.1558    -0.6938     0.0094 N.am    
   4 O4             1.0628    -0.5974    -0.0113 O.2     
   5 C5            -1.1370    -2.0836     0.0017 C.2     
   6 N6            -0.0478    -2.8559    -0.0124 N.2     
   7 C7            -0.3959    -4.1265    -0.0155 C.2     
   8 N8            -1.7505    -4.2220    -0.0034 N.pl3   
   9 C9            -2.2479    -2.9178     0.0135 C.2     
  10 C10           -3.6019    -2.5267     0.0305 C.2     
  11 O11           -4.5752    -3.4629     0.0317 O.3     
  12 O12           -3.8942    -1.3445     0.0442 O.2     
  13 C13           -5.9254    -2.9951     0.0494 C.3     
  14 C14           -6.8796    -4.1911     0.0480 C.3     
  15 S15            0.7213    -5.4889    -0.0334 S.3     
  16 C16            2.2989    -4.6015    -0.0433 C.3     
  17 C17           -2.5386    -5.4569    -0.0022 C.3     
  18 C18            1.1793     2.1909     0.0026 C.ar    
  19 C19            1.1533     3.5714     0.0097 C.ar    
  20 C20           -0.0568     4.2434     0.0249 C.ar    
  21 C21           -1.2469     3.5376     0.0325 C.ar    
  22 C22           -1.2348     2.1584     0.0196 C.ar    
  23 C23           -2.7961    -5.8872     1.4189 C.ar    
  24 C24           -3.9233    -5.4406     2.0828 C.ar    
  25 C25           -4.1595    -5.8352     3.3864 C.ar    
  26 C26           -3.2687    -6.6769     4.0259 C.ar    
  27 C27           -2.1419    -7.1243     3.3617 C.ar    
  28 C28           -1.9080    -6.7331     2.0566 C.ar    
  29 Br29           2.7739     4.5458    -0.0005 Br      
  30 H30           -2.0023    -0.2203     0.0200 H       
  31 H31           -6.0916    -2.3988     0.9465 H       
  32 H32           -6.1093    -2.3826    -0.8333 H       
  33 H33           -7.9094    -3.8343     0.0615 H       
  34 H34           -6.7134    -4.7875    -0.8492 H       
  35 H35           -6.6957    -4.8037     0.9306 H       
  36 H36            2.3554    -3.9707    -0.9305 H       
  37 H37            2.3720    -3.9804     0.8494 H       
  38 H38            3.1193    -5.3191    -0.0549 H       
  39 H39           -3.4889    -5.2820    -0.5067 H       
  40 H40           -1.9885    -6.2395    -0.5248 H       
  41 H41            2.1239     1.6674    -0.0085 H       
  42 H42           -0.0720     5.3233     0.0312 H       
  43 H43           -2.1877     4.0680     0.0443 H       
  44 H44           -2.1646     1.6090     0.0256 H       
  45 H45           -4.6193    -4.7830     1.5832 H       
  46 H46           -5.0397    -5.4857     3.9054 H       
  47 H47           -3.4528    -6.9847     5.0446 H       
  48 H48           -1.4458    -7.7816     3.8614 H       
  49 H49           -1.0277    -7.0826     1.5376 H       
@<TRIPOS>BOND
   1    1    2 1
   2    1   18 ar
   3    1   22 ar
   4    2    3 am
   5    2    4 2
   6    3    5 1
   7    3   30 1
   8    5    6 1
   9    5    9 2
  10    6    7 2
  11    7    8 1
  12    7   15 1
  13    8    9 1
  14    8   17 1
  15    9   10 1
  16   10   11 1
  17   10   12 2
  18   11   13 1
  19   13   14 1
  20   13   31 1
  21   13   32 1
  22   14   33 1
  23   14   34 1
  24   14   35 1
  25   15   16 1
  26   16   36 1
  27   16   37 1
  28   16   38 1
  29   17   23 1
  30   17   39 1
  31   17   40 1
  32   18   19 ar
  33   18   41 1
  34   19   20 ar
  35   19   29 1
  36   20   21 ar
  37   20   42 1
  38   21   22 ar
  39   21   43 1
  40   22   44 1
  41   23   24 ar
  42   23   28 ar
  43   24   25 ar
  44   24   45 1
  45   25   26 ar
  46   25   46 1
  47   26   27 ar
  48   26   47 1
  49   27   28 ar
  50   27   48 1
  51   28   49 1

#	End of record

