#	Name: ASD02398024
#	Creating user name:	WinNT
#	Creation time:	15. 06. 2019 20:20

#	Modifying user name:	WinNT
#	Modification time:	15. 06. 2019 20:20

#	Program:	/corina/corina34_cracker 3.40 0067  02.08.2006

@<TRIPOS>MOLECULE
ASD02398024
  69   72    0    0    0
SMALL
NO_CHARGES


@<TRIPOS>ATOM
   1 C1             1.4792     2.0143    -0.6875 C.ar    
   2 C2             1.1991     0.6501    -0.8138 C.ar    
   3 C3            -0.0499     0.2420    -1.2751 C.ar    
   4 C4            -1.0038     1.1838    -1.6049 C.ar    
   5 C5            -0.7238     2.5327    -1.4789 C.ar    
   6 C6             0.5108     2.9486    -1.0170 C.ar    
   7 C7            -2.3549     0.7409    -2.1044 C.3     
   8 C8            -3.2688     0.4964    -0.9314 C.2     
   9 O9            -2.8390     0.5720     0.1953 O.2     
  10 O10           -4.5603     0.1947    -1.1382 O.3     
  11 C11            2.2279    -0.3577    -0.4586 C.ar    
  12 C12            2.6245    -0.5147     0.8684 C.ar    
  13 C13            2.7972    -1.1550    -1.4494 C.ar    
  14 C14            3.7538    -2.0916    -1.1130 C.ar    
  15 C15            4.1473    -2.2394     0.2046 C.ar    
  16 C16            3.5816    -1.4541     1.1932 C.ar    
  17 C17            2.0095     0.3403     1.9463 C.3     
  18 N18            1.6818    -0.4948     3.1045 N.am    
  19 C19            2.5307    -0.8384     4.0827 C.2     
  20 O20            1.9828    -1.6096     5.0285 O.3     
  21 C21            0.5834    -1.8547     4.7051 C.3     
  22 C22            0.3655    -1.0877     3.3865 C.3     
  23 O23            3.6922    -0.4825     4.1080 O.2     
  24 C24           -0.0347    -2.0489     2.2655 C.3     
  25 C25            0.3363    -3.3285     4.5111 C.ar    
  26 C26           -0.8719    -3.8826     4.8908 C.ar    
  27 C27            1.3157    -4.1254     3.9484 C.ar    
  28 C28            1.0890    -5.4774     3.7705 C.ar    
  29 C29           -0.1169    -6.0326     4.1558 C.ar    
  30 C30           -1.0985    -5.2346     4.7130 C.ar    
  31 O31            2.6946     2.4219    -0.2379 O.3     
  32 C32            2.9091     3.8309    -0.1347 C.3     
  33 C33           -5.4083     0.0873     0.0355 C.3     
  34 C34            5.1918    -3.2640     0.5656 C.3     
  35 F35            5.6073    -3.9336    -0.5903 F       
  36 F36            6.2884    -2.6247     1.1539 F       
  37 F37            4.6493    -4.1847     1.4684 F       
  38 C38            2.1564    -6.3459     3.1561 C.3     
  39 F39            2.9810    -6.8553     4.1649 F       
  40 F40            1.5561    -7.4043     2.4656 F       
  41 F41            2.9228    -5.5844     2.2673 F       
  42 C42           -2.4132    -5.8399     5.1330 C.3     
  43 F43           -2.3589    -7.2288     4.9744 F       
  44 F44           -2.6602    -5.5330     6.4754 F       
  45 F45           -3.4409    -5.3197     4.3390 F       
  46 H46           -0.2719    -0.8102    -1.3751 H       
  47 H47           -1.4748     3.2641    -1.7387 H       
  48 H48            0.7236     4.0031    -0.9207 H       
  49 H49           -2.7797     1.5176    -2.7403 H       
  50 H50           -2.2463    -0.1794    -2.6784 H       
  51 H51            2.4904    -1.0407    -2.4786 H       
  52 H52            4.1955    -2.7103    -1.8801 H       
  53 H53            3.8926    -1.5737     2.2205 H       
  54 H54            2.7173     1.1137     2.2447 H       
  55 H55            1.1007     0.8067     1.5659 H       
  56 H56           -0.0646    -1.4571     5.4862 H       
  57 H57           -0.3896    -0.3121     3.5150 H       
  58 H58           -0.9134    -2.6171     2.5705 H       
  59 H59           -0.2644    -1.4805     1.3642 H       
  60 H60            0.7887    -2.7339     2.0630 H       
  61 H61           -1.6386    -3.2593     5.3267 H       
  62 H62            2.2578    -3.6916     3.6474 H       
  63 H63           -0.2941    -7.0888     4.0164 H       
  64 H64            3.9169     4.0189     0.2354 H       
  65 H65            2.7912     4.2893    -1.1166 H       
  66 H66            2.1826     4.2593     0.5558 H       
  67 H67           -4.9836    -0.6423     0.7250 H       
  68 H68           -5.4723     1.0578     0.5275 H       
  69 H69           -6.4055    -0.2342    -0.2649 H       
@<TRIPOS>BOND
   1    1    2 ar
   2    1   31 1
   3    1    6 ar
   4    2    3 ar
   5    2   11 1
   6    3    4 ar
   7    3   46 1
   8    4    5 ar
   9    4    7 1
  10    5    6 ar
  11    5   47 1
  12    6   48 1
  13    7    8 1
  14    7   49 1
  15    7   50 1
  16    8    9 2
  17    8   10 1
  18   10   33 1
  19   11   12 ar
  20   11   13 ar
  21   12   17 1
  22   12   16 ar
  23   13   14 ar
  24   13   51 1
  25   14   15 ar
  26   14   52 1
  27   15   16 ar
  28   15   34 1
  29   16   53 1
  30   17   18 1
  31   17   54 1
  32   17   55 1
  33   18   19 am
  34   18   22 1
  35   19   20 1
  36   19   23 2
  37   20   21 1
  38   21   22 1
  39   21   25 1
  40   21   56 1
  41   22   24 1
  42   22   57 1
  43   24   58 1
  44   24   59 1
  45   24   60 1
  46   25   26 ar
  47   25   27 ar
  48   26   30 ar
  49   26   61 1
  50   27   28 ar
  51   27   62 1
  52   28   29 ar
  53   28   38 1
  54   29   30 ar
  55   29   63 1
  56   30   42 1
  57   31   32 1
  58   32   64 1
  59   32   65 1
  60   32   66 1
  61   33   67 1
  62   33   68 1
  63   33   69 1
  64   34   35 1
  65   34   36 1
  66   34   37 1
  67   38   39 1
  68   38   40 1
  69   38   41 1
  70   42   43 1
  71   42   44 1
  72   42   45 1

#	End of record

