#	Name: ASD06350027
#	Creating user name:	WinNT
#	Creation time:	15. 06. 2019 21:06

#	Modifying user name:	WinNT
#	Modification time:	15. 06. 2019 21:06

#	Program:	/corina/corina34_cracker 3.40 0067  02.08.2006

@<TRIPOS>MOLECULE
ASD06350027
  50   53    0    0    0
SMALL
NO_CHARGES


@<TRIPOS>ATOM
   1 F1             3.0185     1.3661    -1.0199 F       
   2 C2             2.2937     2.4882    -0.8184 C.ar    
   3 C3             2.8736     3.7304    -1.0136 C.ar    
   4 C4             2.1342     4.8787    -0.8086 C.ar    
   5 C5             0.8084     4.7870    -0.4065 C.ar    
   6 C6             0.2285     3.5401    -0.2112 C.ar    
   7 C7             0.9696     2.3945    -0.4223 C.ar    
   8 C8            -1.2103     3.4377     0.2252 C.3     
   9 N9             0.0569     5.9504    -0.1976 N.am    
  10 C10           -0.6426     6.4869    -1.2278 C.2     
  11 C11           -1.3826     7.6134    -1.0647 C.2     
  12 C12           -1.4353     8.2424     0.1789 C.2     
  13 C13           -0.7191     7.6961     1.2427 C.2     
  14 C14            0.0360     6.5153     1.0246 C.2     
  15 O15            0.6708     6.0181     1.9387 O.2     
  16 C16           -0.7496     8.3303     2.5691 C.2     
  17 O17           -1.3131     9.3980     2.7201 O.2     
  18 N18           -0.1532     7.7289     3.6175 N.am    
  19 C19           -0.0520     8.3975     4.8434 C.ar    
  20 C20           -0.0605     7.6769     6.0301 C.ar    
  21 C21            0.0394     8.3363     7.2400 C.ar    
  22 C22            0.1483     9.7181     7.2704 C.ar    
  23 C23            0.1575    10.4409     6.0835 C.ar    
  24 C24            0.0629     9.7814     4.8725 C.ar    
  25 F25            0.2637    11.7874     6.1132 F       
  26 O26            0.2457    10.3663     8.4621 O.3     
  27 C27           -0.8754    10.9317     8.9724 C.ar    
  28 N28           -2.0529    10.7470     8.3815 N.ar    
  29 C29           -3.1483    11.2926     8.8701 C.ar    
  30 N30           -3.1297    12.0390     9.9554 N.ar    
  31 C31           -1.9906    12.2714    10.6046 C.ar    
  32 C32           -0.8120    11.7077    10.1232 C.ar    
  33 N33           -1.9792    13.0582    11.7457 N.pl3   
  34 H34            3.9050     3.8012    -1.3261 H       
  35 H35            2.5870     5.8473    -0.9606 H       
  36 H36            0.5190     1.4247    -0.2709 H       
  37 H37           -1.8544     3.3972    -0.6532 H       
  38 H38           -1.3467     2.5331     0.8179 H       
  39 H39           -1.4704     4.3087     0.8267 H       
  40 H40           -0.6102     6.0095    -2.1961 H       
  41 H41           -1.9312     8.0235    -1.8998 H       
  42 H42           -2.0216     9.1390     0.3156 H       
  43 H43            0.2058     6.8328     3.5226 H       
  44 H44           -0.1457     6.6005     6.0074 H       
  45 H45            0.0323     7.7751     8.1627 H       
  46 H46            0.0699    10.3425     3.9497 H       
  47 H47           -4.0883    11.1233     8.3661 H       
  48 H48            0.1287    11.8766    10.6263 H       
  49 H49           -2.8052    13.4443    12.0769 H       
  50 H50           -1.1453    13.2228    12.2130 H       
@<TRIPOS>BOND
   1    1    2 1
   2    2    3 ar
   3    2    7 ar
   4    3    4 ar
   5    3   34 1
   6    4    5 ar
   7    4   35 1
   8    5    6 ar
   9    5    9 1
  10    6    7 ar
  11    6    8 1
  12    7   36 1
  13    8   37 1
  14    8   38 1
  15    8   39 1
  16    9   10 1
  17    9   14 am
  18   10   11 2
  19   10   40 1
  20   11   12 1
  21   11   41 1
  22   12   13 2
  23   12   42 1
  24   13   14 1
  25   13   16 1
  26   14   15 2
  27   16   17 2
  28   16   18 am
  29   18   19 1
  30   18   43 1
  31   19   20 ar
  32   19   24 ar
  33   20   21 ar
  34   20   44 1
  35   21   22 ar
  36   21   45 1
  37   22   23 ar
  38   22   26 1
  39   23   24 ar
  40   23   25 1
  41   24   46 1
  42   26   27 1
  43   27   28 ar
  44   27   32 ar
  45   28   29 ar
  46   29   30 ar
  47   29   47 1
  48   30   31 ar
  49   31   32 ar
  50   31   33 1
  51   32   48 1
  52   33   49 1
  53   33   50 1

#	End of record

