#	Name: ASD01150855
#	Creating user name:	WinNT
#	Creation time:	15. 06. 2019 19:05

#	Modifying user name:	WinNT
#	Modification time:	15. 06. 2019 19:05

#	Program:	/corina/corina34_cracker 3.40 0067  02.08.2006

@<TRIPOS>MOLECULE
ASD01150855
  50   52    0    0    0
SMALL
NO_CHARGES


@<TRIPOS>ATOM
   1 C1            -0.0169     1.3934     0.0097 C.ar    
   2 C2             0.0021    -0.0041     0.0020 C.ar    
   3 C3             1.2238    -0.6825    -0.0133 C.ar    
   4 C4             2.4035     0.0277    -0.0207 C.ar    
   5 C5             2.3803     1.4175    -0.0131 C.ar    
   6 C6             1.1672     2.0961     0.0022 C.ar    
   7 C7            -1.2644    -0.7611     0.0105 C.2     
   8 N8            -1.2440    -2.1087     0.0031 N.am    
   9 O9            -2.3264    -0.1693     0.0243 O.2     
  10 C10           -2.4368    -2.8217     0.0111 C.2     
  11 N11           -3.6656    -2.2992     0.0257 N.2     
  12 C12           -4.5658    -3.2611     0.0288 C.2     
  13 N13           -3.9358    -4.4671     0.0161 N.pl3   
  14 C14           -2.5635    -4.2057    -0.0007 C.2     
  15 S15           -6.3116    -3.0232     0.0475 S.3     
  16 C16           -6.3822    -1.2146     0.0583 C.3     
  17 C17           -4.5458    -5.7280     0.0155 C.ar    
  18 C18           -1.5202    -5.1524    -0.0184 C.2     
  19 O19           -1.8061    -6.4723    -0.0205 O.3     
  20 O20           -0.3606    -4.7805    -0.0319 O.2     
  21 C21           -0.6991    -7.3759    -0.0389 C.3     
  22 C22           -1.2161    -8.8159    -0.0384 C.3     
  23 O23            3.5451     2.1138    -0.0204 O.3     
  24 C24            3.4487     3.5395    -0.0119 C.3     
  25 C25           -5.3164    -6.1276    -1.0683 C.ar    
  26 C26           -5.9162    -7.3717    -1.0661 C.ar    
  27 C27           -5.7504    -8.2189     0.0141 C.ar    
  28 C28           -4.9836    -7.8239     1.0949 C.ar    
  29 C29           -4.3765    -6.5833     1.0962 C.ar    
  30 H30           -0.9590     1.9213     0.0170 H       
  31 H31            1.2427    -1.7623    -0.0189 H       
  32 H32            3.3480    -0.4958    -0.0322 H       
  33 H33            1.1534     3.1760     0.0081 H       
  34 H34           -0.3968    -2.5809    -0.0078 H       
  35 H35           -5.8741    -0.8365     0.9454 H       
  36 H36           -5.8919    -0.8265    -0.8344 H       
  37 H37           -7.4232    -0.8918     0.0705 H       
  38 H38           -0.1044    -7.2036    -0.9359 H       
  39 H39           -0.0812    -7.2114     0.8438 H       
  40 H40           -0.3717    -9.5050    -0.0525 H       
  41 H41           -1.8108    -8.9881     0.8586 H       
  42 H42           -1.8340    -8.9803    -0.9211 H       
  43 H43            4.4495     3.9714    -0.0191 H       
  44 H44            2.9031     3.8722    -0.8949 H       
  45 H45            2.9201     3.8626     0.8850 H       
  46 H46           -5.4469    -5.4660    -1.9120 H       
  47 H47           -6.5157    -7.6830    -1.9088 H       
  48 H48           -6.2210    -9.1910     0.0138 H       
  49 H49           -4.8559    -8.4878     1.9372 H       
  50 H50           -3.7775    -6.2755     1.9405 H       
@<TRIPOS>BOND
   1    1    2 ar
   2    1    6 ar
   3    1   30 1
   4    2    3 ar
   5    2    7 1
   6    3    4 ar
   7    3   31 1
   8    4    5 ar
   9    4   32 1
  10    5    6 ar
  11    5   23 1
  12    6   33 1
  13    7    8 am
  14    7    9 2
  15    8   10 1
  16    8   34 1
  17   10   11 1
  18   10   14 2
  19   11   12 2
  20   12   13 1
  21   12   15 1
  22   13   14 1
  23   13   17 1
  24   14   18 1
  25   15   16 1
  26   16   35 1
  27   16   36 1
  28   16   37 1
  29   17   25 ar
  30   17   29 ar
  31   18   19 1
  32   18   20 2
  33   19   21 1
  34   21   22 1
  35   21   38 1
  36   21   39 1
  37   22   40 1
  38   22   41 1
  39   22   42 1
  40   23   24 1
  41   24   43 1
  42   24   44 1
  43   24   45 1
  44   25   26 ar
  45   25   46 1
  46   26   27 ar
  47   26   47 1
  48   27   28 ar
  49   27   48 1
  50   28   29 ar
  51   28   49 1
  52   29   50 1

#	End of record

