#	Name: ASD01900723
#	Creating user name:	WinNT
#	Creation time:	15. 06. 2019 19:52

#	Modifying user name:	WinNT
#	Modification time:	15. 06. 2019 19:52

#	Program:	/corina/corina34_cracker 3.40 0067  02.08.2006

@<TRIPOS>MOLECULE
ASD01900723
  61   64    0    0    0
SMALL
NO_CHARGES


@<TRIPOS>ATOM
   1 C1            -0.5552     0.7227    -0.6300 C.ar    
   2 C2            -0.7189    -0.6045    -0.2535 C.ar    
   3 C3            -1.9766    -1.1699    -0.1986 C.ar    
   4 C4            -3.0948    -0.4123    -0.5208 C.ar    
   5 C5            -2.9271     0.9251    -0.9040 C.ar    
   6 O6            -4.3311    -0.9536    -0.4592 O.3     
   7 C7            -5.3915    -0.3622    -1.0366 C.2     
   8 C8            -5.3779     0.9324    -1.4442 C.2     
   9 C9            -4.1393     1.7079    -1.2562 C.2     
  10 C10           -6.6181    -1.1517    -1.2356 C.2     
  11 N11           -7.7042    -0.5838    -1.8150 N.2     
  12 C12           -8.8053    -1.2446    -2.0087 C.2     
  13 N13           -8.9273    -2.5551    -1.6364 N.pl3   
  14 C14           -7.8553    -3.1948    -1.0392 C.2     
  15 C15           -6.6619    -2.4770    -0.8362 C.2     
  16 C16           -1.6611     1.4932    -0.9508 C.ar    
  17 C17           -9.9541    -3.4448    -1.7299 C.2     
  18 C18           -9.5595    -4.6316    -1.2073 C.2     
  19 C19           -8.2398    -4.4943    -0.7667 C.2     
  20 O20            0.6898     1.2672    -0.6781 O.3     
  21 C21            1.7837     0.4167    -0.3287 C.3     
  22 C22            3.0939     1.1988    -0.4411 C.3     
  23 N23            3.1345     2.2378     0.5967 N.3     
  24 C24            4.4964     2.7627     0.7630 C.3     
  25 C25            2.1865     3.3190     0.2965 C.3     
  26 C26            4.5887     3.5323     2.0822 C.3     
  27 O27            4.3614     2.6372     3.1727 O.3     
  28 C28            4.3146     3.2769     4.4496 C.3     
  29 C29            2.4940     3.8977    -1.0861 C.3     
  30 O30            2.0285     2.9976    -2.0935 O.3     
  31 C31            2.3635     3.3923    -3.4254 C.3     
  32 N32           -4.1090     3.0125    -1.3915 N.2     
  33 O33           -2.9340     3.7312    -1.0630 O.3     
  34 H34            0.1465    -1.1997    -0.0017 H       
  35 H35           -2.0913    -2.2029     0.0950 H       
  36 H36           -6.2508     1.3816    -1.8943 H       
  37 H37           -9.6438    -0.7479    -2.4742 H       
  38 H38           -5.8056    -2.9449    -0.3735 H       
  39 H39           -1.5385     2.5255    -1.2437 H       
  40 H40          -10.9263    -3.2381    -2.1522 H       
  41 H41          -10.1598    -5.5270    -1.1426 H       
  42 H42           -7.6354    -5.2587    -0.3011 H       
  43 H43            1.6575     0.0644     0.6950 H       
  44 H44            1.8109    -0.4370    -1.0060 H       
  45 H45            3.9354     0.5191    -0.3078 H       
  46 H46            3.1556     1.6650    -1.4245 H       
  47 H47            5.2058     1.9353     0.7746 H       
  48 H48            4.7316     3.4314    -0.0650 H       
  49 H49            1.1703     2.9248     0.3075 H       
  50 H50            2.2802     4.1033     1.0477 H       
  51 H51            5.5804     3.9748     2.1760 H       
  52 H52            3.8362     4.3207     2.0963 H       
  53 H53            4.0515     2.5450     5.2133 H       
  54 H54            5.2908     3.7050     4.6776 H       
  55 H55            3.5658     4.0688     4.4321 H       
  56 H56            1.9921     4.8588    -1.1975 H       
  57 H57            3.5702     4.0355    -1.1911 H       
  58 H58            1.8522     4.3239    -3.6678 H       
  59 H59            3.4410     3.5389    -3.5008 H       
  60 H60            2.0530     2.6150    -4.1237 H       
  61 H61           -3.0073     4.6863    -1.1953 H       
@<TRIPOS>BOND
   1    1    2 ar
   2    1   20 1
   3    1   16 ar
   4    2    3 ar
   5    2   34 1
   6    3    4 ar
   7    3   35 1
   8    4    5 ar
   9    4    6 1
  10    5   16 ar
  11    5    9 1
  12    6    7 1
  13    7    8 2
  14    7   10 1
  15    8    9 1
  16    8   36 1
  17    9   32 2
  18   10   11 1
  19   10   15 2
  20   11   12 2
  21   12   13 1
  22   12   37 1
  23   13   14 1
  24   13   17 1
  25   14   15 1
  26   14   19 2
  27   15   38 1
  28   16   39 1
  29   17   18 2
  30   17   40 1
  31   18   19 1
  32   18   41 1
  33   19   42 1
  34   20   21 1
  35   21   22 1
  36   21   43 1
  37   21   44 1
  38   22   23 1
  39   22   45 1
  40   22   46 1
  41   23   24 1
  42   23   25 1
  43   24   26 1
  44   24   47 1
  45   24   48 1
  46   25   29 1
  47   25   49 1
  48   25   50 1
  49   26   27 1
  50   26   51 1
  51   26   52 1
  52   27   28 1
  53   28   53 1
  54   28   54 1
  55   28   55 1
  56   29   30 1
  57   29   56 1
  58   29   57 1
  59   30   31 1
  60   31   58 1
  61   31   59 1
  62   31   60 1
  63   32   33 1
  64   33   61 1

#	End of record

