#	Name: ASD08178067
#	Creating user name:	WinNT
#	Creation time:	15. 06. 2019 21:18

#	Modifying user name:	WinNT
#	Modification time:	15. 06. 2019 21:18

#	Program:	/corina/corina34_cracker 3.40 0067  02.08.2006

@<TRIPOS>MOLECULE
ASD08178067
 116  121    0    0    0
SMALL
NO_CHARGES


@<TRIPOS>ATOM
   1 N1             0.4639     0.6989     1.8991 N.2     
   2 N2             0.4873    -0.5602     1.8104 N.2     
   3 C3             1.5929     1.3321     1.7913 C.2     
   4 S4             2.8434     0.1871     1.5465 S.3     
   5 C5             1.6460    -1.1062     1.6185 C.2     
   6 N6             1.7590     2.7111     1.8624 N.am    
   7 C7             0.6909     3.5092     2.0594 C.2     
   8 O8            -0.4150     3.0248     2.1746 O.2     
   9 C9             1.9218    -2.5814     1.4814 C.3     
  10 C10            1.8245    -2.9837     0.0084 C.3     
  11 C11            2.1045    -4.4814    -0.1307 C.3     
  12 C12            2.0073    -4.8837    -1.6037 C.3     
  13 C13            2.2830    -6.3589    -1.7408 C.2     
  14 N14            1.4037    -7.3086    -1.6883 N.2     
  15 S15            3.8601    -7.1021    -2.0091 S.3     
  16 C16            3.1123    -8.6433    -2.0088 C.2     
  17 N17            1.8359    -8.4868    -1.8260 N.2     
  18 N18            3.7634    -9.8602    -2.1805 N.am    
  19 C19            3.0599   -11.0096    -2.1601 C.2     
  20 O20            1.8591   -10.9828    -1.9920 O.2     
  21 C21            3.7653   -12.3283    -2.3462 C.3     
  22 C22            0.8709     5.0034     2.1364 C.3     
  23 C23            1.4670     5.5048     0.8464 C.ar    
  24 C24            4.7891   -12.5086    -1.2552 C.ar    
  25 C25            4.6288   -11.8631    -0.0433 C.ar    
  26 C26            2.1962     6.6791     0.8323 C.ar    
  27 C27            2.7430     7.1390    -0.3510 C.ar    
  28 C28            2.5611     6.4244    -1.5202 C.ar    
  29 C29            1.8327     5.2496    -1.5060 C.ar    
  30 C30            1.2896     4.7874    -0.3219 C.ar    
  31 N31           -0.4335     5.6431     2.3543 N.3     
  32 C32           -1.0122     5.2339     3.6410 C.3     
  33 C33           -2.2767     6.0556     3.9129 C.3     
  34 N34           -3.1764     5.9250     2.7568 N.am    
  35 C35           -2.6296     6.1860     1.4166 C.3     
  36 C36           -1.3512     5.3592     1.2429 C.3     
  37 C37           -4.4677     5.5758     2.9211 C.2     
  38 O38           -5.2757     5.4614     1.8502 O.3     
  39 O39           -4.9028     5.3642     4.0357 O.2     
  40 C40           -6.6544     5.0819     2.1021 C.3     
  41 C41           -7.3140     6.1261     3.0051 C.3     
  42 C42           -7.4123     5.0031     0.7753 C.3     
  43 C43           -6.6896     3.7164     2.7914 C.3     
  44 C44            5.8856   -13.3240    -1.4642 C.ar    
  45 C45            6.8248   -13.4894    -0.4634 C.ar    
  46 C46            6.6676   -12.8391     0.7462 C.ar    
  47 C47            5.5679   -12.0285     0.9575 C.ar    
  48 N48            2.7855   -13.4209    -2.2837 N.3     
  49 C49            1.8142   -13.3204    -3.3812 C.3     
  50 C50            0.9259   -14.5691    -3.3887 C.3     
  51 N51            0.3377   -14.7321    -2.0505 N.am    
  52 C52            1.2370   -14.7050    -0.8870 C.3     
  53 C53            2.1130   -13.4510    -0.9780 C.3     
  54 C54           -0.9902   -14.9023    -1.8946 C.2     
  55 O55           -1.5098   -15.0498    -0.6614 O.3     
  56 O56           -1.7184   -14.9225    -2.8671 O.2     
  57 C57           -2.9477   -15.2287    -0.5689 C.3     
  58 C58           -3.3558   -16.4856    -1.3400 C.3     
  59 C59           -3.3497   -15.3784     0.8997 C.3     
  60 C60           -3.6529   -14.0108    -1.1691 C.3     
  61 H61            2.6435     3.0985     1.7703 H       
  62 H62            2.9231    -2.7999     1.8524 H       
  63 H63            1.1891    -3.1434     2.0606 H       
  64 H64            0.8232    -2.7652    -0.3625 H       
  65 H65            2.5572    -2.4218    -0.5708 H       
  66 H66            3.1058    -4.6999     0.2403 H       
  67 H67            1.3718    -5.0434     0.4485 H       
  68 H68            1.0059    -4.6653    -1.9747 H       
  69 H69            2.7400    -4.3218    -2.1829 H       
  70 H70            4.7238    -9.8817    -2.3150 H       
  71 H71            4.2621   -12.3408    -3.3163 H       
  72 H72            1.5376     5.2469     2.9636 H       
  73 H73            3.7700   -11.2293     0.1214 H       
  74 H74            2.3383     7.2374     1.7458 H       
  75 H75            3.3121     8.0569    -0.3621 H       
  76 H76            2.9877     6.7841    -2.4449 H       
  77 H77            1.6903     4.6914    -2.4196 H       
  78 H78            0.7205     3.8695    -0.3107 H       
  79 H79           -1.2674     4.1748     3.6046 H       
  80 H80           -0.2879     5.4068     4.4369 H       
  81 H81           -2.7729     5.6789     4.8074 H       
  82 H82           -2.0097     7.1031     4.0526 H       
  83 H83           -3.3591     5.8955     0.6605 H       
  84 H84           -2.3966     7.2461     1.3163 H       
  85 H85           -0.8728     5.6230     0.2997 H       
  86 H86           -1.6017     4.2984     1.2399 H       
  87 H87           -7.2889     7.0989     2.5140 H       
  88 H88           -8.3490     5.8411     3.1942 H       
  89 H89           -6.7741     6.1822     3.9503 H       
  90 H90           -6.9423     4.2592     0.1320 H       
  91 H91           -8.4472     4.7182     0.9644 H       
  92 H92           -7.3872     5.9759     0.2843 H       
  93 H93           -6.1497     3.7724     3.7366 H       
  94 H94           -7.7245     3.4314     2.9805 H       
  95 H95           -6.2197     2.9724     2.1481 H       
  96 H96            6.0084   -13.8321    -2.4093 H       
  97 H97            7.6811   -14.1270    -0.6265 H       
  98 H98            7.4012   -12.9685     1.5282 H       
  99 H99            5.4452   -11.5204     1.9025 H       
 100 H100           1.1951   -12.4346    -3.2390 H       
 101 H101           2.3445   -13.2456    -4.3305 H       
 102 H102           0.1318   -14.4491    -4.1256 H       
 103 H103           1.5272   -15.4447    -3.6335 H       
 104 H104           0.6486   -14.6749     0.0300 H       
 105 H105           1.8682   -15.5936    -0.8914 H       
 106 H106           2.8600   -13.4708    -0.1845 H       
 107 H107           1.4898   -12.5633    -0.8693 H       
 108 H108          -2.8535   -17.3533    -0.9124 H       
 109 H109          -4.4353   -16.6200    -1.2707 H       
 110 H110          -3.0694   -16.3790    -2.3863 H       
 111 H111          -3.0589   -14.4829     1.4490 H       
 112 H112          -4.4291   -15.5127     0.9691 H       
 113 H113          -2.8473   -16.2461     1.3273 H       
 114 H114          -3.3665   -13.9042    -2.2154 H       
 115 H115          -4.7323   -14.1451    -1.0998 H       
 116 H116          -3.3621   -13.1153    -0.6198 H       
@<TRIPOS>BOND
   1    1    2 1
   2    1    3 2
   3    2    5 2
   4    3    4 1
   5    3    6 1
   6    4    5 1
   7    5    9 1
   8    6    7 am
   9    6   61 1
  10    7    8 2
  11    7   22 1
  12    9   10 1
  13    9   62 1
  14    9   63 1
  15   10   11 1
  16   10   64 1
  17   10   65 1
  18   11   12 1
  19   11   66 1
  20   11   67 1
  21   12   13 1
  22   12   68 1
  23   12   69 1
  24   13   14 2
  25   13   15 1
  26   14   17 1
  27   15   16 1
  28   16   17 2
  29   16   18 1
  30   18   19 am
  31   18   70 1
  32   19   20 2
  33   19   21 1
  34   21   48 1
  35   21   24 1
  36   21   71 1
  37   22   23 1
  38   22   31 1
  39   22   72 1
  40   23   26 ar
  41   23   30 ar
  42   24   44 ar
  43   24   25 ar
  44   25   47 ar
  45   25   73 1
  46   26   27 ar
  47   26   74 1
  48   27   28 ar
  49   27   75 1
  50   28   29 ar
  51   28   76 1
  52   29   30 ar
  53   29   77 1
  54   30   78 1
  55   31   32 1
  56   31   36 1
  57   32   33 1
  58   32   79 1
  59   32   80 1
  60   33   34 1
  61   33   81 1
  62   33   82 1
  63   34   35 1
  64   34   37 am
  65   35   36 1
  66   35   83 1
  67   35   84 1
  68   36   85 1
  69   36   86 1
  70   37   38 1
  71   37   39 2
  72   38   40 1
  73   40   41 1
  74   40   42 1
  75   40   43 1
  76   41   87 1
  77   41   88 1
  78   41   89 1
  79   42   90 1
  80   42   91 1
  81   42   92 1
  82   43   93 1
  83   43   94 1
  84   43   95 1
  85   44   45 ar
  86   44   96 1
  87   45   46 ar
  88   45   97 1
  89   46   47 ar
  90   46   98 1
  91   47   99 1
  92   48   49 1
  93   48   53 1
  94   49   50 1
  95   49  100 1
  96   49  101 1
  97   50   51 1
  98   50  102 1
  99   50  103 1
 100   51   52 1
 101   51   54 am
 102   52   53 1
 103   52  104 1
 104   52  105 1
 105   53  106 1
 106   53  107 1
 107   54   55 1
 108   54   56 2
 109   55   57 1
 110   57   58 1
 111   57   59 1
 112   57   60 1
 113   58  108 1
 114   58  109 1
 115   58  110 1
 116   59  111 1
 117   59  112 1
 118   59  113 1
 119   60  114 1
 120   60  115 1
 121   60  116 1

#	End of record

