#	Name: ASD01410163
#	Creating user name:	WinNT
#	Creation time:	15. 06. 2019 19:16

#	Modifying user name:	WinNT
#	Modification time:	15. 06. 2019 19:16

#	Program:	/corina/corina34_cracker 3.40 0067  02.08.2006

@<TRIPOS>MOLECULE
ASD01410163
  46   49    0    0    0
SMALL
NO_CHARGES


@<TRIPOS>ATOM
   1 C1             0.2590     1.4560    -0.4423 C.3     
   2 C2             0.3843    -0.0679    -0.4978 C.3     
   3 C3             1.4099    -0.4567    -1.5644 C.3     
   4 C4             2.7679     0.1541    -1.2129 C.3     
   5 C5             2.6426     1.6780    -1.1573 C.3     
   6 C6             1.6170     2.0669    -0.0907 C.3     
   7 C7             2.0401     3.7883     3.5519 C.ar    
   8 C8             2.4706     3.5122     2.2552 C.ar    
   9 C9             3.4295     2.5235     2.0405 C.ar    
  10 C10            3.9471     1.8239     3.1116 C.ar    
  11 C11            3.5161     2.1022     4.3963 C.ar    
  12 C12            2.5648     3.0823     4.6153 C.ar    
  13 C13            0.8777     5.6528    -1.0063 C.ar    
  14 C14            0.9767     4.2499    -1.0970 C.ar    
  15 C15            1.4936     3.5678    -0.0360 C.ar    
  16 C16            1.9104     4.2670     1.1084 C.ar    
  17 N17            1.8141     5.5798     1.1860 N.ar    
  18 C18            1.3156     6.2998     0.1769 C.ar    
  19 C19            1.2182     7.6985     0.2703 C.ar    
  20 C20            0.6977     8.4189    -0.7916 C.ar    
  21 C21            0.2676     7.7626    -1.9583 C.ar    
  22 C22            0.3483     6.4108    -2.0644 C.ar    
  23 C23            0.5929     9.8898    -0.6976 C.2     
  24 O24            0.9625    10.4619     0.3081 O.2     
  25 O25            0.0874    10.5962    -1.7272 O.3     
  26 H26           -0.0670     1.8293    -1.4130 H       
  27 H27           -0.4717     1.7330     0.3176 H       
  28 H28            0.7103    -0.4413     0.4730 H       
  29 H29           -0.5832    -0.5031    -0.7483 H       
  30 H30            1.4992    -1.5424    -1.6040 H       
  31 H31            1.0839    -0.0834    -2.5352 H       
  32 H32            3.0939    -0.2192    -0.2421 H       
  33 H33            3.4986    -0.1229    -1.9728 H       
  34 H34            3.6101     2.1132    -0.9069 H       
  35 H35            2.3166     2.0514    -2.1281 H       
  36 H36            1.9430     1.6935     0.8801 H       
  37 H37            1.3007     4.5563     3.7245 H       
  38 H38            3.7665     2.3051     1.0379 H       
  39 H39            4.6898     1.0574     2.9465 H       
  40 H40            3.9237     1.5520     5.2314 H       
  41 H41            2.2322     3.2956     5.6204 H       
  42 H42            0.6513     3.7283    -1.9849 H       
  43 H43            1.5466     8.2080     1.1641 H       
  44 H44           -0.1359     8.3393    -2.7774 H       
  45 H45            0.0148     5.9192    -2.9664 H       
  46 H46            0.0388    11.5559    -1.6193 H       
@<TRIPOS>BOND
   1    1    2 1
   2    1    6 1
   3    1   26 1
   4    1   27 1
   5    2    3 1
   6    2   28 1
   7    2   29 1
   8    3    4 1
   9    3   30 1
  10    3   31 1
  11    4    5 1
  12    4   32 1
  13    4   33 1
  14    5    6 1
  15    5   34 1
  16    5   35 1
  17    6   15 1
  18    6   36 1
  19    7    8 ar
  20    7   12 ar
  21    7   37 1
  22    8    9 ar
  23    8   16 1
  24    9   10 ar
  25    9   38 1
  26   10   11 ar
  27   10   39 1
  28   11   12 ar
  29   11   40 1
  30   12   41 1
  31   13   14 ar
  32   13   18 ar
  33   13   22 ar
  34   14   15 ar
  35   14   42 1
  36   15   16 ar
  37   16   17 ar
  38   17   18 ar
  39   18   19 ar
  40   19   20 ar
  41   19   43 1
  42   20   21 ar
  43   20   23 1
  44   21   22 ar
  45   21   44 1
  46   22   45 1
  47   23   24 2
  48   23   25 1
  49   25   46 1

#	End of record

