#	Name: ASD08520007
#	Creating user name:	WinNT
#	Creation time:	15. 06. 2019 21:19

#	Modifying user name:	WinNT
#	Modification time:	15. 06. 2019 21:19

#	Program:	/corina/corina34_cracker 3.40 0067  02.08.2006

@<TRIPOS>MOLECULE
ASD08520007
  44   46    0    0    0
SMALL
NO_CHARGES


@<TRIPOS>ATOM
   1 C1            -0.0184     1.5028     0.0103 C.2     
   2 C2             2.4606     1.7547    -0.0125 C.2     
   3 O3             2.6405     0.5518    -0.0211 O.2     
   4 N4             3.5152     2.5939    -0.0180 N.am    
   5 C5             4.8782     2.0573    -0.0344 C.3     
   6 C6             5.2927     1.7616    -1.4772 C.3     
   7 C7             5.8232     3.0680     0.5627 C.ar    
   8 N8             4.3043     0.8693    -2.0975 N.3     
   9 C9             7.5573     4.9221     1.6575 C.ar    
  10 C10            6.5307     5.3395     0.8312 C.ar    
  11 C11            5.6639     4.4124     0.2835 C.ar    
  12 C12            6.8460     2.6512     1.3940 C.ar    
  13 C13            7.7129     3.5783     1.9416 C.ar    
  14 C14            1.0906     2.2941     0.0040 C.2     
  15 C15            0.8122     3.6619     0.0140 C.2     
  16 C16           -0.5003     3.9441     0.0280 C.2     
  17 S17           -1.4334     2.4556     0.0215 S.3     
  18 C18            0.0021    -0.0041     0.0020 C.3     
  19 C19           -1.0755     5.3064     0.0409 C.ar    
  20 C20           -2.0711     5.6551    -0.8719 C.ar    
  21 C21           -2.6038     6.9280    -0.8549 C.ar    
  22 C22           -2.1529     7.8580     0.0646 C.ar    
  23 C23           -1.1654     7.5197     0.9727 C.ar    
  24 C24           -0.6283     6.2478     0.9706 C.ar    
  25 Cl25           0.6107     5.8245     2.1106 Cl      
  26 H26            3.3717     3.5532    -0.0111 H       
  27 H27            4.9136     1.1375     0.5495 H       
  28 H28            5.3432     2.6943    -2.0390 H       
  29 H29            6.2707     1.2805    -1.4830 H       
  30 H30            4.5557     0.6589    -3.0517 H       
  31 H31            4.1919     0.0238    -1.5584 H       
  32 H32            8.2345     5.6465     2.0854 H       
  33 H33            6.4091     6.3895     0.6093 H       
  34 H34            4.8623     4.7384    -0.3627 H       
  35 H35            6.9676     1.6012     1.6159 H       
  36 H36            8.5149     3.2522     2.5872 H       
  37 H37            1.5800     4.4213     0.0107 H       
  38 H38            0.0168    -0.3729     1.0276 H       
  39 H39           -0.8878    -0.3767    -0.5053 H       
  40 H40            0.8920    -0.3525    -0.5222 H       
  41 H41           -2.4241     4.9305    -1.5907 H       
  42 H42           -3.3744     7.1990    -1.5614 H       
  43 H43           -2.5734     8.8528     0.0734 H       
  44 H44           -0.8176     8.2505     1.6878 H       
@<TRIPOS>BOND
   1    1   18 1
   2    1   14 2
   3    1   17 1
   4    2    3 2
   5    2    4 am
   6    2   14 1
   7    4    5 1
   8    4   26 1
   9    5    6 1
  10    5    7 1
  11    5   27 1
  12    6    8 1
  13    6   28 1
  14    6   29 1
  15    7   12 ar
  16    7   11 ar
  17    8   30 1
  18    8   31 1
  19    9   10 ar
  20    9   13 ar
  21    9   32 1
  22   10   11 ar
  23   10   33 1
  24   11   34 1
  25   12   13 ar
  26   12   35 1
  27   13   36 1
  28   14   15 1
  29   15   16 2
  30   15   37 1
  31   16   17 1
  32   16   19 1
  33   18   38 1
  34   18   39 1
  35   18   40 1
  36   19   20 ar
  37   19   24 ar
  38   20   21 ar
  39   20   41 1
  40   21   22 ar
  41   21   42 1
  42   22   23 ar
  43   22   43 1
  44   23   24 ar
  45   23   44 1
  46   24   25 1

#	End of record

