#	Name: ASD01912641
#	Creating user name:	WinNT
#	Creation time:	15. 06. 2019 20:00

#	Modifying user name:	WinNT
#	Modification time:	15. 06. 2019 20:00

#	Program:	/corina/corina34_cracker 3.40 0067  02.08.2006

@<TRIPOS>MOLECULE
ASD01912641
  38   41    0    0    0
SMALL
NO_CHARGES


@<TRIPOS>ATOM
   1 C1            -0.0263     1.3422     0.2526 C.2     
   2 N2             0.0029    -0.0020    -0.0158 N.pl3   
   3 C3            -1.1912    -0.6645    -0.2577 C.2     
   4 C4            -2.3525    -0.0232    -0.2338 C.2     
   5 N5            -2.4359     1.3307     0.0312 N.am    
   6 C6            -1.3128     2.0399     0.2824 C.2     
   7 C7             1.2833     1.7379     0.4508 C.2     
   8 C8             2.0431     0.5810     0.2862 C.2     
   9 N9             1.2236    -0.4066     0.0130 N.2     
  10 O10           -1.3691     3.2336     0.5177 O.2     
  11 C11           -3.6828     1.9658     0.0452 C.ar    
  12 C12            3.5424     0.4818     0.4017 C.3     
  13 O13            4.0825     1.7684     0.7099 O.3     
  14 C14            5.4316     1.8540     0.8491 C.ar    
  15 C15            6.0234     3.0726     1.1483 C.ar    
  16 C16            7.3950     3.1569     1.2892 C.ar    
  17 C17            8.1780     2.0281     1.1323 C.ar    
  18 C18            7.5907     0.8126     0.8337 C.ar    
  19 C19            6.2189     0.7217     0.6979 C.ar    
  20 C20           -4.0086     2.9049    -0.9303 C.ar    
  21 C21           -5.2552     3.5066    -0.8742 C.ar    
  22 C22           -6.1280     3.1585     0.1397 C.ar    
  23 N23           -5.7892     2.2650     1.0488 N.ar    
  24 C24           -4.6162     1.6647     1.0291 C.ar    
  25 H25           -1.1756    -1.7233    -0.4701 H       
  26 H26           -3.2600    -0.5758    -0.4275 H       
  27 H27            1.6409     2.7303     0.6826 H       
  28 H28            3.8000    -0.2199     1.1950 H       
  29 H29            3.9571     0.1305    -0.5431 H       
  30 H30            5.4123     3.9546     1.2705 H       
  31 H31            7.8562     4.1054     1.5217 H       
  32 H32            9.2502     2.0961     1.2429 H       
  33 H33            8.2045    -0.0675     0.7110 H       
  34 H34            5.7606    -0.2280     0.4646 H       
  35 H35           -3.3066     3.1580    -1.7110 H       
  36 H36           -5.5417     4.2396    -1.6138 H       
  37 H37           -7.1009     3.6249     0.1882 H       
  38 H38           -4.3745     0.9383     1.7908 H       
@<TRIPOS>BOND
   1    1    2 1
   2    1    7 2
   3    1    6 1
   4    2    3 1
   5    2    9 1
   6    3    4 2
   7    3   25 1
   8    4    5 1
   9    4   26 1
  10    5    6 am
  11    5   11 1
  12    6   10 2
  13    7    8 1
  14    7   27 1
  15    8    9 2
  16    8   12 1
  17   11   20 ar
  18   11   24 ar
  19   12   13 1
  20   12   28 1
  21   12   29 1
  22   13   14 1
  23   14   15 ar
  24   14   19 ar
  25   15   16 ar
  26   15   30 1
  27   16   17 ar
  28   16   31 1
  29   17   18 ar
  30   17   32 1
  31   18   19 ar
  32   18   33 1
  33   19   34 1
  34   20   21 ar
  35   20   35 1
  36   21   22 ar
  37   21   36 1
  38   22   23 ar
  39   22   37 1
  40   23   24 ar
  41   24   38 1

#	End of record

