#	Name: ASD01810903
#	Creating user name:	WinNT
#	Creation time:	15. 06. 2019 19:25

#	Modifying user name:	WinNT
#	Modification time:	15. 06. 2019 19:25

#	Program:	/corina/corina34_cracker 3.40 0067  02.08.2006

@<TRIPOS>MOLECULE
ASD01810903
  40   42    0    0    0
SMALL
NO_CHARGES


@<TRIPOS>ATOM
   1 C1            -0.2312     1.4546     0.2022 C.2     
   2 C2            -0.1007    -0.0132     0.0950 C.ar    
   3 C3             1.1601    -0.5948    -0.0615 C.ar    
   4 C4             1.2831    -1.9659    -0.1613 C.ar    
   5 C5             0.1627    -2.7719    -0.1073 C.ar    
   6 C6            -1.1030    -2.2040     0.0488 C.ar    
   7 C7            -1.2345    -0.8216     0.1555 C.ar    
   8 O8             0.7631     2.1501     0.2597 O.2     
   9 O9            -1.4526     2.0220     0.2305 O.3     
  10 N10           -3.5313    -4.8019     0.1863 N.2     
  11 N11           -2.3169    -4.3832     0.1386 N.2     
  12 C12           -2.3017    -3.0693     0.1064 C.2     
  13 N13           -3.6053    -2.6536     0.1366 N.pl3   
  14 C14           -4.3549    -3.7882     0.1872 C.2     
  15 C15           -5.8594    -3.8617     0.2355 C.3     
  16 C16            2.3880     0.2768    -0.1220 C.3     
  17 C17            0.3069    -4.2679    -0.2176 C.3     
  18 C18            0.7992    -4.6476    -1.6252 C.3     
  19 C19            2.1510    -5.3674    -1.4400 C.3     
  20 C20            2.0975    -5.9089     0.0102 C.3     
  21 C21            1.3768    -4.7702     0.7738 C.3     
  22 H22            2.2599    -2.4106    -0.2825 H       
  23 H23           -2.2111    -0.3777     0.2808 H       
  24 H24           -1.4874     2.9857     0.3014 H       
  25 H25           -3.9282    -1.7390     0.1247 H       
  26 H26           -6.1903    -3.8541     1.2740 H       
  27 H27           -6.2820    -3.0034    -0.2868 H       
  28 H28           -6.1939    -4.7807    -0.2457 H       
  29 H29            2.7088     0.5234     0.8902 H       
  30 H30            3.1872    -0.2566    -0.6366 H       
  31 H31            2.1562     1.1941    -0.6632 H       
  32 H32           -0.6486    -4.7509    -0.0133 H       
  33 H33            0.0830    -5.3156    -2.1036 H       
  34 H34            0.9338    -3.7499    -2.2285 H       
  35 H35            2.2465    -6.1885    -2.1504 H       
  36 H36            2.9763    -4.6647    -1.5546 H       
  37 H37            1.5193    -6.8317     0.0570 H       
  38 H38            3.1028    -6.0614     0.4030 H       
  39 H39            2.0770    -3.9710     1.0167 H       
  40 H40            0.9073    -5.1554     1.6789 H       
@<TRIPOS>BOND
   1    1    2 1
   2    1    8 2
   3    1    9 1
   4    2    3 ar
   5    2    7 ar
   6    3    4 ar
   7    3   16 1
   8    4    5 ar
   9    4   22 1
  10    5    6 ar
  11    5   17 1
  12    6    7 ar
  13    6   12 1
  14    7   23 1
  15    9   24 1
  16   10   11 1
  17   10   14 2
  18   11   12 2
  19   12   13 1
  20   13   14 1
  21   13   25 1
  22   14   15 1
  23   15   26 1
  24   15   27 1
  25   15   28 1
  26   16   29 1
  27   16   30 1
  28   16   31 1
  29   17   18 1
  30   17   21 1
  31   17   32 1
  32   18   19 1
  33   18   33 1
  34   18   34 1
  35   19   20 1
  36   19   35 1
  37   19   36 1
  38   20   21 1
  39   20   37 1
  40   20   38 1
  41   21   39 1
  42   21   40 1

#	End of record

