#	Name: ASD06170395
#	Creating user name:	WinNT
#	Creation time:	15. 06. 2019 21:05

#	Modifying user name:	WinNT
#	Modification time:	15. 06. 2019 21:05

#	Program:	/corina/corina34_cracker 3.40 0067  02.08.2006

@<TRIPOS>MOLECULE
ASD06170395
  58   61    0    0    0
SMALL
NO_CHARGES


@<TRIPOS>ATOM
   1 N1             0.4630     1.7059     0.0596 N.am    
   2 N2            -0.0832     0.4229    -0.0402 N.pl3   
   3 C3             0.9003    -0.4833    -0.1989 C.2     
   4 C4             2.1113     0.1808    -0.2069 C.2     
   5 C5             1.8054     1.6101    -0.0368 C.2     
   6 C6             3.4419    -0.4209    -0.3554 C.2     
   7 O7             3.5536    -1.6253    -0.4889 O.2     
   8 N8             4.5400     0.3605    -0.3439 N.am    
   9 C9             5.8134    -0.2207    -0.3818 C.ar    
  10 C10            6.0280    -1.3750    -1.1230 C.ar    
  11 C11            8.3335    -1.3686    -0.4551 C.ar    
  12 C12            8.1193    -0.2126     0.2802 C.ar    
  13 C13            6.8632     0.3604     0.3173 C.ar    
  14 O14            9.5708    -1.9324    -0.4907 O.3     
  15 N15           11.9649    -0.9780    -3.6178 N.ar    
  16 C16           12.4862    -1.7352    -2.6546 C.ar    
  17 C17           11.6925    -2.0824    -1.5646 C.ar    
  18 C18           10.3825    -1.6204    -1.5302 C.ar    
  19 N19            9.9362    -0.8679    -2.5324 N.ar    
  20 C20           10.7177    -0.5597    -3.5475 C.ar    
  21 O21            2.6057     2.5256     0.0076 O.2     
  22 C22           -0.2611     2.8910     0.2256 C.ar    
  23 C23           -1.2126     2.9899     1.2325 C.ar    
  24 C24           -1.9260     4.1615     1.3937 C.ar    
  25 C25            7.2858    -1.9482    -1.1597 C.ar    
  26 C26            0.7113    -1.9715    -0.3428 C.3     
  27 C27           -1.5132     0.1104     0.0196 C.3     
  28 C28           -1.6940     5.2351     0.5537 C.ar    
  29 C29           -0.7474     5.1399    -0.4498 C.ar    
  30 C30           -0.0262     3.9733    -0.6125 C.ar    
  31 N31           13.7992    -2.1718    -2.7361 N.pl3   
  32 F32            7.4957    -3.0716    -1.8802 F       
  33 C33           -2.0917     0.0954    -1.3967 C.3     
  34 O34           -1.9092     1.3782    -1.9994 O.3     
  35 C35           -3.5852    -0.2309    -1.3342 C.3     
  36 H36            4.4481     1.3255    -0.3093 H       
  37 H37            5.2129    -1.8252    -1.6702 H       
  38 H38            8.9351     0.2398     0.8244 H       
  39 H39            6.6974     1.2610     0.8899 H       
  40 H40           12.0847    -2.6956    -0.7667 H       
  41 H41           10.3243     0.0532    -4.3450 H       
  42 H42           -1.3947     2.1515     1.8885 H       
  43 H43           -2.6660     4.2390     2.1765 H       
  44 H44            0.5999    -2.2232    -1.3975 H       
  45 H45            1.5798    -2.4891     0.0645 H       
  46 H46           -0.1824    -2.2785     0.2004 H       
  47 H47           -1.6524    -0.8680     0.4794 H       
  48 H48           -2.0259     0.8671     0.6135 H       
  49 H49           -2.2537     6.1499     0.6814 H       
  50 H50           -0.5689     5.9801    -1.1045 H       
  51 H51            0.7132     3.8996    -1.3962 H       
  52 H52           14.3456    -1.9259    -3.4989 H       
  53 H53           14.1717    -2.7232    -2.0303 H       
  54 H54           -1.5791    -0.6613    -1.9906 H       
  55 H55           -2.3396     2.1014    -1.5230 H       
  56 H56           -4.0979     0.5259    -0.7403 H       
  57 H57           -3.9973    -0.2415    -2.3432 H       
  58 H58           -3.7244    -1.2093    -0.8744 H       
@<TRIPOS>BOND
   1    1    2 1
   2    1    5 am
   3    1   22 1
   4    2    3 1
   5    2   27 1
   6    3    4 2
   7    3   26 1
   8    4    5 1
   9    4    6 1
  10    5   21 2
  11    6    7 2
  12    6    8 am
  13    8    9 1
  14    8   36 1
  15    9   10 ar
  16    9   13 ar
  17   10   25 ar
  18   10   37 1
  19   11   12 ar
  20   11   14 1
  21   11   25 ar
  22   12   13 ar
  23   12   38 1
  24   13   39 1
  25   14   18 1
  26   15   16 ar
  27   15   20 ar
  28   16   17 ar
  29   16   31 1
  30   17   18 ar
  31   17   40 1
  32   18   19 ar
  33   19   20 ar
  34   20   41 1
  35   22   23 ar
  36   22   30 ar
  37   23   24 ar
  38   23   42 1
  39   24   28 ar
  40   24   43 1
  41   25   32 1
  42   26   44 1
  43   26   45 1
  44   26   46 1
  45   27   33 1
  46   27   47 1
  47   27   48 1
  48   28   29 ar
  49   28   49 1
  50   29   30 ar
  51   29   50 1
  52   30   51 1
  53   31   52 1
  54   31   53 1
  55   33   34 1
  56   33   35 1
  57   33   54 1
  58   34   55 1
  59   35   56 1
  60   35   57 1
  61   35   58 1

#	End of record

