#	Name: ASD07930647
#	Creating user name:	WinNT
#	Creation time:	15. 06. 2019 21:12

#	Modifying user name:	WinNT
#	Modification time:	15. 06. 2019 21:12

#	Program:	/corina/corina34_cracker 3.40 0067  02.08.2006

@<TRIPOS>MOLECULE
ASD07930647
  43   45    0    0    0
SMALL
NO_CHARGES


@<TRIPOS>ATOM
   1 C1            -1.1176     1.8182     0.2442 C.3     
   2 N2            -0.0677     0.2188    -2.0472 N.2     
   3 N3            -1.4485    -1.4640    -1.1970 N.pl3   
   4 C4            -1.2453    -2.5390    -0.2202 C.3     
   5 C5            -1.6082    -2.0257     1.1801 C.3     
   6 S6            -0.6057    -0.5454     1.5233 S.o2    
   7 N7            -0.8416     0.3820     0.1591 N.am    
   8 C8            -0.7641    -0.2735    -1.0615 C.2     
   9 C9             0.2206    -2.9769    -0.2398 C.3     
  10 O10           -1.1771     0.2174     2.5773 O.2     
  11 O11            0.7800    -0.8597     1.5067 O.2     
  12 C12           -2.1261    -3.7105    -0.5707 C.ar    
  13 C13           -2.4546    -3.9563    -1.8892 C.ar    
  14 C14           -3.2661    -5.0365    -2.2114 C.ar    
  15 C15           -3.7444    -5.8660    -1.2059 C.ar    
  16 C16           -3.4121    -5.6147     0.1111 C.ar    
  17 N17           -3.6012    -5.2880    -3.5465 N.am    
  18 C18           -4.8213    -5.7699    -3.8557 C.2     
  19 C19           -5.2200    -5.9417    -5.2988 C.3     
  20 O20           -5.5983    -6.0653    -2.9726 O.2     
  21 C21           -2.5999    -4.5417     0.4281 C.ar    
  22 C22           -6.6182    -6.4933    -5.5846 C.3     
  23 C23           -6.3099    -5.0175    -5.8455 C.3     
  24 H24           -0.1781     2.3705     0.2244 H       
  25 H25           -1.7347     2.1204    -0.6019 H       
  26 H26           -1.6454     2.0323     1.1736 H       
  27 H27            0.4074     1.0569    -1.9342 H       
  28 H28           -2.0599    -1.5912    -1.9392 H       
  29 H29           -2.6669    -1.7685     1.2142 H       
  30 H30           -1.3925    -2.7955     1.9210 H       
  31 H31            0.8564    -2.1292     0.0158 H       
  32 H32            0.3709    -3.7758     0.4863 H       
  33 H33            0.4788    -3.3375    -1.2355 H       
  34 H34           -2.0813    -3.3091    -2.6690 H       
  35 H35           -4.3759    -6.7065    -1.4532 H       
  36 H36           -3.7842    -6.2593     0.8937 H       
  37 H37           -2.9554    -5.1155    -4.2494 H       
  38 H38           -4.4170    -6.2298    -5.9773 H       
  39 H39           -2.3381    -4.3498     1.4581 H       
  40 H40           -6.7352    -7.1439    -6.4513 H       
  41 H41           -7.2497    -6.7319    -4.7288 H       
  42 H42           -6.7386    -4.2853    -5.1613 H       
  43 H43           -6.2241    -4.6973    -6.8838 H       
@<TRIPOS>BOND
   1    1    7 1
   2    1   24 1
   3    1   25 1
   4    1   26 1
   5    2    8 2
   6    2   27 1
   7    3    4 1
   8    3    8 1
   9    3   28 1
  10    4    5 1
  11    4    9 1
  12    4   12 1
  13    5    6 1
  14    5   29 1
  15    5   30 1
  16    6    7 am
  17    6   10 2
  18    6   11 2
  19    7    8 1
  20    9   31 1
  21    9   32 1
  22    9   33 1
  23   12   21 ar
  24   12   13 ar
  25   13   14 ar
  26   13   34 1
  27   14   15 ar
  28   14   17 1
  29   15   16 ar
  30   15   35 1
  31   16   21 ar
  32   16   36 1
  33   17   18 am
  34   17   37 1
  35   18   19 1
  36   18   20 2
  37   19   22 1
  38   19   23 1
  39   19   38 1
  40   21   39 1
  41   22   23 1
  42   22   40 1
  43   22   41 1
  44   23   42 1
  45   23   43 1

#	End of record

