#	Name: ASD01917356
#	Creating user name:	WinNT
#	Creation time:	15. 06. 2019 20:09

#	Modifying user name:	WinNT
#	Modification time:	15. 06. 2019 20:09

#	Program:	/corina/corina34_cracker 3.40 0067  02.08.2006

@<TRIPOS>MOLECULE
ASD01917356
  51   54    0    0    0
SMALL
NO_CHARGES


@<TRIPOS>ATOM
   1 C1            -0.0187     1.5352     0.0104 C.3     
   2 C2            -0.0011    -0.0035     0.0084 C.3     
   3 C3             1.0309    -0.4917     1.0268 C.3     
   4 C4             0.7302     0.0898     2.4095 C.3     
   5 C5             0.6813     1.6245     2.3082 C.3     
   6 C6             1.8994     2.0720     1.4677 C.3     
   7 C7             1.4511     2.0149    -0.0038 C.3     
   8 C8            -0.5329     1.9729     1.4073 C.3     
   9 C9            -0.8262     2.1052    -1.1271 C.2     
  10 O10           -0.3000     2.8400    -1.9357 O.2     
  11 N11           -2.1332     1.7984    -1.2458 N.am    
  12 C12           -3.1160     3.9452    -3.9274 C.ar    
  13 N13           -2.3892     3.3661    -2.9931 N.ar    
  14 C14           -2.9036     2.4072    -2.2303 C.ar    
  15 C15           -4.2289     2.0207    -2.4331 C.ar    
  16 C16           -4.9529     2.6555    -3.4241 C.ar    
  17 N17           -4.3699     3.6032    -4.1441 N.ar    
  18 C18           -2.4977     5.0330    -4.7673 C.3     
  19 C19            1.6261     2.0702     4.5096 C.2     
  20 C20            1.5775     2.7243     5.8346 C.ar    
  21 C21            2.6044     2.5166     6.7568 C.ar    
  22 C22            2.5527     3.1305     7.9923 C.ar    
  23 C23            1.4846     3.9503     8.3168 C.ar    
  24 C24            0.4644     4.1595     7.4066 C.ar    
  25 C25            0.5075     3.5566     6.1662 C.ar    
  26 O26            2.5617     1.3497     4.2215 O.2     
  27 N27            0.6331     2.2727     3.6212 N.am    
  28 Cl28           3.8284     2.8740     9.1414 Cl      
  29 H29           -0.9875    -0.3798     0.2797 H       
  30 H30            0.2677    -0.3638    -0.9846 H       
  31 H31            0.9996    -1.5800     1.0786 H       
  32 H32            2.0257    -0.1767     0.7116 H       
  33 H33           -0.2318    -0.2833     2.7608 H       
  34 H34            1.5140    -0.2048     3.1074 H       
  35 H35            2.1841     3.0901     1.7333 H       
  36 H36            2.7367     1.3936     1.6309 H       
  37 H37            2.0703     1.3086    -0.5569 H       
  38 H38            1.5177     3.0051    -0.4545 H       
  39 H39           -0.7418     3.0425     1.4294 H       
  40 H40           -1.4126     1.3984     1.6976 H       
  41 H41           -2.5364     1.1529    -0.6445 H       
  42 H42           -4.6774     1.2445    -1.8308 H       
  43 H43           -5.9813     2.3827    -3.6098 H       
  44 H44           -2.0348     4.5917    -5.6500 H       
  45 H45           -3.2704     5.7372    -5.0759 H       
  46 H46           -1.7408     5.5569    -4.1836 H       
  47 H47            3.4372     1.8769     6.5047 H       
  48 H48            1.4480     4.4279     9.2848 H       
  49 H49           -0.3659     4.7997     7.6659 H       
  50 H50           -0.2878     3.7247     5.4550 H       
  51 H51           -0.1136     2.8477     3.8510 H       
@<TRIPOS>BOND
   1    1    2 1
   2    1    7 1
   3    1    8 1
   4    1    9 1
   5    2    3 1
   6    2   29 1
   7    2   30 1
   8    3    4 1
   9    3   31 1
  10    3   32 1
  11    4    5 1
  12    4   33 1
  13    4   34 1
  14    5    6 1
  15    5    8 1
  16    5   27 1
  17    6    7 1
  18    6   35 1
  19    6   36 1
  20    7   37 1
  21    7   38 1
  22    8   39 1
  23    8   40 1
  24    9   10 2
  25    9   11 am
  26   11   14 1
  27   11   41 1
  28   12   13 ar
  29   12   17 ar
  30   12   18 1
  31   13   14 ar
  32   14   15 ar
  33   15   16 ar
  34   15   42 1
  35   16   17 ar
  36   16   43 1
  37   18   44 1
  38   18   45 1
  39   18   46 1
  40   19   20 1
  41   19   26 2
  42   19   27 am
  43   20   21 ar
  44   20   25 ar
  45   21   22 ar
  46   21   47 1
  47   22   23 ar
  48   22   28 1
  49   23   24 ar
  50   23   48 1
  51   24   25 ar
  52   24   49 1
  53   25   50 1
  54   27   51 1

#	End of record

