#	Name: ASD01120247
#	Creating user name:	WinNT
#	Creation time:	15. 06. 2019 18:59

#	Modifying user name:	WinNT
#	Modification time:	15. 06. 2019 18:59

#	Program:	/corina/corina34_cracker 3.40 0067  02.08.2006

@<TRIPOS>MOLECULE
ASD01120247
  50   52    0    0    0
SMALL
NO_CHARGES


@<TRIPOS>ATOM
   1 C1            -8.9105     7.0693     3.4043 C.ar    
   2 C2            -9.2464     7.3671     2.0958 C.ar    
   3 C3            -9.2285     6.3736     1.1348 C.ar    
   4 C4            -8.8753     5.0829     1.4811 C.ar    
   5 C5            -8.5395     4.7847     2.7887 C.ar    
   6 C6            -8.5519     5.7782     3.7493 C.ar    
   7 S7            -8.0893     3.1392     3.2292 S.o2    
   8 N8            -6.4493     3.0119     3.0382 N.am    
   9 C9            -5.6219     3.7374     3.8163 C.2     
  10 N10           -4.2871     3.6338     3.6608 N.am    
  11 O11           -8.3420     3.0131     4.6218 O.2     
  12 O12           -8.6742     2.2882     2.2530 O.2     
  13 O13           -6.0796     4.4854     4.6585 O.2     
  14 C14           -3.8090    11.6634     7.1046 C.ar    
  15 C15           -5.0812    12.0831     7.4492 C.ar    
  16 C16           -5.6915    11.5796     8.5827 C.ar    
  17 C17           -5.0308    10.6569     9.3718 C.ar    
  18 C18           -3.7591    10.2370     9.0279 C.ar    
  19 C19           -3.1501    10.7357     7.8921 C.ar    
  20 S20           -2.9176     9.0608    10.0344 S.o2    
  21 N21           -3.3036     7.5571     9.4580 N.am    
  22 C22           -2.9112     7.1878     8.2227 C.2     
  23 N23           -3.2253     5.9640     7.7536 N.am    
  24 O24           -1.5299     9.2412     9.7874 O.2     
  25 O25           -3.4952     9.1546    11.3293 O.2     
  26 O26           -2.2737     7.9587     7.5314 O.2     
  27 Cl27          -3.0421    12.2948     5.6809 Cl      
  28 Cl28          -8.9321     8.3165     4.6117 Cl      
  29 C29           -2.9024     5.6151     6.4373 C.ar    
  30 C30           -1.7289     6.0850     5.8614 C.ar    
  31 C31           -1.4097     5.7413     4.5618 C.ar    
  32 C32           -2.2554     4.9290     3.8314 C.ar    
  33 C33           -3.4305     4.4558     4.4017 C.ar    
  34 C34           -3.7513     4.7948     5.7082 C.ar    
  35 H35           -9.5227     8.3754     1.8252 H       
  36 H36           -9.4910     6.6059     0.1132 H       
  37 H37           -8.8618     4.3070     0.7299 H       
  38 H38           -8.2896     5.5451     4.7707 H       
  39 H39           -6.0841     2.4151     2.3663 H       
  40 H40           -3.9202     2.9894     3.0354 H       
  41 H41           -5.5975    12.8043     6.8329 H       
  42 H42           -6.6847    11.9074     8.8520 H       
  43 H43           -5.5079    10.2641    10.2575 H       
  44 H44           -2.1567    10.4077     7.6236 H       
  45 H45           -3.8121     6.9422    10.0095 H       
  46 H46           -3.6752     5.3250     8.3283 H       
  47 H47           -1.0655     6.7199     6.4299 H       
  48 H48           -0.4971     6.1085     4.1160 H       
  49 H49           -2.0032     4.6621     2.8157 H       
  50 H50           -4.6640     4.4279     6.1539 H       
@<TRIPOS>BOND
   1    1    2 ar
   2    1   28 1
   3    1    6 ar
   4    2    3 ar
   5    2   35 1
   6    3    4 ar
   7    3   36 1
   8    4    5 ar
   9    4   37 1
  10    5    6 ar
  11    5    7 1
  12    6   38 1
  13    7    8 am
  14    7   11 2
  15    7   12 2
  16    8    9 am
  17    8   39 1
  18    9   10 am
  19    9   13 2
  20   10   33 1
  21   10   40 1
  22   14   15 ar
  23   14   27 1
  24   14   19 ar
  25   15   16 ar
  26   15   41 1
  27   16   17 ar
  28   16   42 1
  29   17   18 ar
  30   17   43 1
  31   18   19 ar
  32   18   20 1
  33   19   44 1
  34   20   21 am
  35   20   24 2
  36   20   25 2
  37   21   22 am
  38   21   45 1
  39   22   23 am
  40   22   26 2
  41   23   29 1
  42   23   46 1
  43   29   30 ar
  44   29   34 ar
  45   30   31 ar
  46   30   47 1
  47   31   32 ar
  48   31   48 1
  49   32   33 ar
  50   32   49 1
  51   33   34 ar
  52   34   50 1

#	End of record

