#	Name: ASD05740229
#	Creating user name:	WinNT
#	Creation time:	15. 06. 2019 21:03

#	Modifying user name:	WinNT
#	Modification time:	15. 06. 2019 21:03

#	Program:	/corina/corina34_cracker 3.40 0067  02.08.2006

@<TRIPOS>MOLECULE
ASD05740229
  62   67    0    0    0
SMALL
NO_CHARGES


@<TRIPOS>ATOM
   1 C1             1.5234    -2.9576     1.8398 C.3     
   2 N2             0.7529    -2.1863     2.8252 N.3     
   3 C3            -0.6240    -2.3247     2.6058 C.ar    
   4 C4            -1.2131    -3.5802     2.6621 C.ar    
   5 C5            -2.5704    -3.7169     2.4459 C.ar    
   6 C6            -3.3469    -2.5986     2.1724 C.ar    
   7 C7            -2.7590    -1.3418     2.1157 C.ar    
   8 C8            -1.4015    -1.2036     2.3372 C.ar    
   9 N9            -4.7232    -2.7384     1.9533 N.pl3   
  10 C10           -5.4425    -3.6827     2.6594 C.ar    
  11 N11           -4.8292    -4.3672     3.6189 N.ar    
  12 N12           -6.7193    -3.8678     2.3579 N.ar    
  13 C13           -7.4406    -4.7664     3.0155 C.ar    
  14 C14           -6.8205    -5.5171     4.0386 C.ar    
  15 C15           -5.4709    -5.2815     4.3241 C.ar    
  16 N16           -8.7637    -4.9803     2.7268 N.am    
  17 C17           -9.4802    -5.8948     3.4043 C.2     
  18 C18           -8.9110    -6.6705     4.4344 C.2     
  19 C19           -7.6039    -6.5089     4.7687 C.2     
  20 C20           -9.4063    -4.2012     1.6655 C.3     
  21 O21          -10.6542    -6.0571     3.1200 O.2     
  22 C22           -9.4303    -5.0092     0.3936 C.ar    
  23 C23          -10.6099    -5.5876    -0.0357 C.ar    
  24 C24            1.1102    -2.5812     4.1948 C.3     
  25 C25            2.6051    -2.3408     4.4186 C.3     
  26 N26            3.3756    -3.1122     3.4332 N.3     
  27 C27            3.0182    -2.7172     2.0636 C.3     
  28 C28          -10.6324    -6.3283    -1.2025 C.ar    
  29 C29           -9.4751    -6.4919    -1.9413 C.ar    
  30 C30           -8.2946    -5.9149    -1.5138 C.ar    
  31 C31           -8.2722    -5.1675    -0.3482 C.ar    
  32 C32          -11.8719    -5.4111     0.7688 C.3     
  33 F33           -7.1187    -4.6025     0.0706 F       
  34 F34           -0.8288     0.0188     2.2826 F       
  35 C35          -13.1038    -4.8693     0.0409 C.3     
  36 C36          -13.0457    -6.3410     0.4550 C.3     
  37 H37            1.3042    -4.0189     1.9568 H       
  38 H38            1.2503    -2.6383     0.8340 H       
  39 H39           -0.6099    -4.4504     2.8748 H       
  40 H40           -3.0280    -4.6942     2.4892 H       
  41 H41           -3.3629    -0.4722     1.9023 H       
  42 H42           -5.1712    -2.1721     1.3056 H       
  43 H43           -4.9647    -5.8373     5.0995 H       
  44 H44           -9.5152    -7.3961     4.9587 H       
  45 H45           -7.1568    -7.0975     5.5562 H       
  46 H46          -10.4269    -3.9577     1.9607 H       
  47 H47           -8.8463    -3.2807     1.5007 H       
  48 H48            0.5360    -1.9875     4.9060 H       
  49 H49            0.8864    -3.6383     4.3386 H       
  50 H50            2.8243    -1.2795     4.3016 H       
  51 H51            2.8782    -2.6601     5.4244 H       
  52 H52            4.3671    -3.0125     3.5912 H       
  53 H53            3.5925    -3.3109     1.3524 H       
  54 H54            3.2421    -1.6602     1.9198 H       
  55 H55          -11.5546    -6.7800    -1.5373 H       
  56 H56           -9.4938    -7.0711    -2.8526 H       
  57 H57           -7.3907    -6.0431    -2.0908 H       
  58 H58          -11.7294    -5.1130     1.8075 H       
  59 H59          -13.7719    -4.2149     0.6009 H       
  60 H60          -13.0014    -4.6404    -1.0199 H       
  61 H61          -12.9051    -7.0805    -0.3334 H       
  62 H62          -13.6756    -6.6549     1.2873 H       
@<TRIPOS>BOND
   1    1    2 1
   2    1   27 1
   3    1   37 1
   4    1   38 1
   5    2    3 1
   6    2   24 1
   7    3    4 ar
   8    3    8 ar
   9    4    5 ar
  10    4   39 1
  11    5    6 ar
  12    5   40 1
  13    6    7 ar
  14    6    9 1
  15    7    8 ar
  16    7   41 1
  17    8   34 1
  18    9   10 1
  19    9   42 1
  20   10   11 ar
  21   10   12 ar
  22   11   15 ar
  23   12   13 ar
  24   13   14 ar
  25   13   16 1
  26   14   15 ar
  27   14   19 1
  28   15   43 1
  29   16   17 am
  30   16   20 1
  31   17   18 1
  32   17   21 2
  33   18   19 2
  34   18   44 1
  35   19   45 1
  36   20   22 1
  37   20   46 1
  38   20   47 1
  39   22   23 ar
  40   22   31 ar
  41   23   28 ar
  42   23   32 1
  43   24   25 1
  44   24   48 1
  45   24   49 1
  46   25   26 1
  47   25   50 1
  48   25   51 1
  49   26   27 1
  50   26   52 1
  51   27   53 1
  52   27   54 1
  53   28   29 ar
  54   28   55 1
  55   29   30 ar
  56   29   56 1
  57   30   31 ar
  58   30   57 1
  59   31   33 1
  60   32   35 1
  61   32   36 1
  62   32   58 1
  63   35   36 1
  64   35   59 1
  65   35   60 1
  66   36   61 1
  67   36   62 1

#	End of record

