#	Name: ASD01911098
#	Creating user name:	WinNT
#	Creation time:	15. 06. 2019 19:57

#	Modifying user name:	WinNT
#	Modification time:	15. 06. 2019 19:57

#	Program:	/corina/corina34_cracker 3.40 0067  02.08.2006

@<TRIPOS>MOLECULE
ASD01911098
  49   52    0    0    0
SMALL
NO_CHARGES


@<TRIPOS>ATOM
   1 C1            -0.0433     1.2199     0.3161 C.2     
   2 O2            -0.0271     0.0155     0.4821 O.2     
   3 N3             1.1123     1.8921     0.1446 N.am    
   4 C4             2.4043     1.2038     0.2696 C.3     
   5 C5             3.2708     1.9614     1.2806 C.3     
   6 C6             3.3783     3.4279     0.8564 C.3     
   7 C7             1.9849     4.0607     0.8445 C.3     
   8 C8             1.1037     3.3257    -0.1769 C.3     
   9 O9             5.5026     1.2447     0.3021 O.3     
  10 N10            6.5224     0.7010     0.6705 N.2     
  11 C11            6.4395     0.4011     1.9376 C.2     
  12 N12            5.2303     0.8154     2.3689 N.2     
  13 C13            4.6466     1.3480     1.3233 C.2     
  14 O14            7.3919    -0.2130     2.6825 O.3     
  15 C15            8.5513    -0.5683     2.0688 C.ar    
  16 C16            8.8101    -0.1442     0.7733 C.ar    
  17 C17            9.9893    -0.5068     0.1518 C.ar    
  18 C18           10.9110    -1.2921     0.8193 C.ar    
  19 C19           10.6553    -1.7164     2.1102 C.ar    
  20 C20            9.4806    -1.3511     2.7387 C.ar    
  21 C21           -1.3282     1.9447     0.2963 C.ar    
  22 C22           -2.2340     1.8027     1.3567 C.ar    
  23 C23           -3.4385     2.4890     1.3278 C.ar    
  24 C24           -3.7431     3.3083     0.2586 C.ar    
  25 C25           -2.8507     3.4512    -0.7910 C.ar    
  26 C26           -1.6466     2.7807    -0.7762 C.ar    
  27 O27           -1.9337     0.9972     2.4061 O.3     
  28 C28           -2.9053     0.9020     3.4497 C.3     
  29 H29            2.2428     0.1839     0.6187 H       
  30 H30            2.9040     1.1859    -0.6989 H       
  31 H31            2.8142     1.9010     2.2685 H       
  32 H32            4.0145     3.9640     1.5607 H       
  33 H33            3.8122     3.4864    -0.1418 H       
  34 H34            1.5404     3.9805     1.8366 H       
  35 H35            2.0648     5.1113     0.5651 H       
  36 H36            1.4995     3.4773    -1.1811 H       
  37 H37            0.0838     3.7063    -0.1226 H       
  38 H38            8.0902     0.4686     0.2513 H       
  39 H39           10.1913    -0.1769    -0.8566 H       
  40 H40           11.8322    -1.5748     0.3315 H       
  41 H41           11.3765    -2.3303     2.6292 H       
  42 H42            9.2834    -1.6788     3.7487 H       
  43 H43           -4.1396     2.3824     2.1424 H       
  44 H44           -4.6827     3.8405     0.2406 H       
  45 H45           -3.0978     4.0942    -1.6228 H       
  46 H46           -0.9519     2.8986    -1.5947 H       
  47 H47           -3.0763     1.8896     3.8780 H       
  48 H48           -3.8396     0.5160     3.0421 H       
  49 H49           -2.5410     0.2279     4.2248 H       
@<TRIPOS>BOND
   1    1    2 2
   2    1    3 am
   3    1   21 1
   4    3    4 1
   5    3    8 1
   6    4    5 1
   7    4   29 1
   8    4   30 1
   9    5    6 1
  10    5   13 1
  11    5   31 1
  12    6    7 1
  13    6   32 1
  14    6   33 1
  15    7    8 1
  16    7   34 1
  17    7   35 1
  18    8   36 1
  19    8   37 1
  20    9   10 1
  21    9   13 1
  22   10   11 2
  23   11   12 1
  24   11   14 1
  25   12   13 2
  26   14   15 1
  27   15   16 ar
  28   15   20 ar
  29   16   17 ar
  30   16   38 1
  31   17   18 ar
  32   17   39 1
  33   18   19 ar
  34   18   40 1
  35   19   20 ar
  36   19   41 1
  37   20   42 1
  38   21   22 ar
  39   21   26 ar
  40   22   23 ar
  41   22   27 1
  42   23   24 ar
  43   23   43 1
  44   24   25 ar
  45   24   44 1
  46   25   26 ar
  47   25   45 1
  48   26   46 1
  49   27   28 1
  50   28   47 1
  51   28   48 1
  52   28   49 1

#	End of record

