#	Name: ASD01814297
#	Creating user name:	WinNT
#	Creation time:	15. 06. 2019 19:32

#	Modifying user name:	WinNT
#	Modification time:	15. 06. 2019 19:32

#	Program:	/corina/corina34_cracker 3.40 0067  02.08.2006

@<TRIPOS>MOLECULE
ASD01814297
  65   70    0    0    0
SMALL
NO_CHARGES


@<TRIPOS>ATOM
   1 C1            -0.0168     1.3869     0.0097 C.ar    
   2 C2             0.0021    -0.0041     0.0020 C.ar    
   3 C3             1.1801    -0.6897    -0.0124 C.ar    
   4 C4             2.3948     0.0129    -0.0202 C.ar    
   5 C5             2.3717     1.4289    -0.0129 C.ar    
   6 C6             1.1456     2.1014     0.0024 C.ar    
   7 C7             3.6294    -0.6695    -0.0356 C.ar    
   8 C8             4.8032     0.0059    -0.0432 C.ar    
   9 C9             4.8363     1.4093    -0.0360 C.ar    
  10 C10            3.6407     2.1511    -0.0211 C.ar    
  11 C11            6.1027     2.1516    -0.0441 C.2     
  12 N12            6.0335     3.5031    -0.0367 N.am    
  13 C13            4.8305     4.1311    -0.0219 C.2     
  14 N14            3.6960     3.4931    -0.0154 N.2     
  15 C15            3.6423    -2.1764    -0.0433 C.3     
  16 C16            3.5090    -2.6727    -1.4600 C.ar    
  17 C17            4.6404    -2.8892    -2.2247 C.ar    
  18 C18            4.5209    -3.3441    -3.5236 C.ar    
  19 C19            3.2644    -3.5838    -4.0606 C.ar    
  20 C20            2.1307    -3.3658    -3.2912 C.ar    
  21 C21            2.2558    -2.9162    -1.9909 C.ar    
  22 O22            7.1747     1.5733    -0.0567 O.2     
  23 C23            7.2173     4.2626    -0.0440 C.2     
  24 C24            8.5254     3.7552    -0.0593 C.2     
  25 N25            9.3557     4.7660    -0.0626 N.2     
  26 N26            8.6085     5.9506    -0.0496 N.pl3   
  27 C27            7.2985     5.6184    -0.0434 C.2     
  28 C28            9.1517     7.3111    -0.0477 C.3     
  29 C29            9.2107     7.8406    -1.4832 C.3     
  30 C30            9.7214     9.2832    -1.4691 C.3     
  31 N31            8.8222    10.1142    -0.6584 N.3     
  32 C32            8.7860     9.6535     0.7355 C.3     
  33 C33            8.2473     8.2220     0.7872 C.3     
  34 C34            9.2028    11.5309    -0.7349 C.3     
  35 O35            3.1442    -4.0309    -5.3383 O.3     
  36 C36            1.8196    -4.2560    -5.8249 C.3     
  37 H37           -0.9630     1.9075     0.0169 H       
  38 H38           -0.9305    -0.5488     0.0080 H       
  39 H39            1.1787    -1.7697    -0.0175 H       
  40 H40            1.1189     3.1810     0.0085 H       
  41 H41            5.7317    -0.5458    -0.0546 H       
  42 H42            4.8137     5.2109    -0.0159 H       
  43 H43            4.5809    -2.5339     0.3801 H       
  44 H44            2.8094    -2.5499     0.5524 H       
  45 H45            5.6184    -2.7022    -1.8064 H       
  46 H46            5.4049    -3.5128    -4.1207 H       
  47 H47            1.1514    -3.5515    -3.7070 H       
  48 H48            1.3736    -2.7466    -1.3914 H       
  49 H49            8.7994     2.7105    -0.0664 H       
  50 H50            6.4664     6.3068    -0.0333 H       
  51 H51           10.1548     7.3022     0.3788 H       
  52 H52            9.8870     7.2209    -2.0721 H       
  53 H53            8.2138     7.8117    -1.9230 H       
  54 H54           10.7239     9.3094    -1.0419 H       
  55 H55            9.7511     9.6679    -2.4885 H       
  56 H56            9.7928     9.6780     1.1523 H       
  57 H57            8.1362    10.3073     1.3172 H       
  58 H58            7.2353     8.1992     0.3831 H       
  59 H59            8.2353     7.8748     1.8203 H       
  60 H60            9.1495    11.8661    -1.7707 H       
  61 H61            8.5207    12.1238    -0.1256 H       
  62 H62           10.2208    11.6541    -0.3651 H       
  63 H63            1.3272    -5.0052    -5.2049 H       
  64 H64            1.2551    -3.3244    -5.7863 H       
  65 H65            1.8661    -4.6102    -6.8547 H       
@<TRIPOS>BOND
   1    1    2 ar
   2    1    6 ar
   3    1   37 1
   4    2    3 ar
   5    2   38 1
   6    3    4 ar
   7    3   39 1
   8    4    5 ar
   9    4    7 ar
  10    5    6 ar
  11    5   10 ar
  12    6   40 1
  13    7    8 ar
  14    7   15 1
  15    8    9 ar
  16    8   41 1
  17    9   10 ar
  18    9   11 1
  19   10   14 1
  20   11   12 am
  21   11   22 2
  22   12   13 1
  23   12   23 1
  24   13   14 2
  25   13   42 1
  26   15   16 1
  27   15   43 1
  28   15   44 1
  29   16   17 ar
  30   16   21 ar
  31   17   18 ar
  32   17   45 1
  33   18   19 ar
  34   18   46 1
  35   19   20 ar
  36   19   35 1
  37   20   21 ar
  38   20   47 1
  39   21   48 1
  40   23   24 1
  41   23   27 2
  42   24   25 2
  43   24   49 1
  44   25   26 1
  45   26   27 1
  46   26   28 1
  47   27   50 1
  48   28   29 1
  49   28   33 1
  50   28   51 1
  51   29   30 1
  52   29   52 1
  53   29   53 1
  54   30   31 1
  55   30   54 1
  56   30   55 1
  57   31   32 1
  58   31   34 1
  59   32   33 1
  60   32   56 1
  61   32   57 1
  62   33   58 1
  63   33   59 1
  64   34   60 1
  65   34   61 1
  66   34   62 1
  67   35   36 1
  68   36   63 1
  69   36   64 1
  70   36   65 1

#	End of record

