#	Name: ASD03331545
#	Creating user name:	WinNT
#	Creation time:	15. 06. 2019 20:39

#	Modifying user name:	WinNT
#	Modification time:	15. 06. 2019 20:39

#	Program:	/corina/corina34_cracker 3.40 0067  02.08.2006

@<TRIPOS>MOLECULE
ASD03331545
  57   59    0    0    0
SMALL
NO_CHARGES


@<TRIPOS>ATOM
   1 C1             0.0364     0.3702    -0.4105 C.ar    
   2 C2             0.0615    -0.7462    -1.2548 C.ar    
   3 C3             1.1821     1.3046    -0.3511 C.2     
   4 N4             1.1022     2.6674    -0.4004 N.pl3   
   5 C5             2.3639     3.1495    -0.3318 C.2     
   6 C6             3.2011     2.0791    -0.2254 C.2     
   7 N7             2.4432     0.9623    -0.2366 N.2     
   8 C8            -0.1240     3.4646    -0.4970 C.3     
   9 C9             0.1852     4.7944    -1.1882 C.3     
  10 C10            0.5940     5.8366    -0.1481 C.3     
  11 C11            1.8573     5.3920     0.5826 C.3     
  12 C12            2.7523     4.6038    -0.3785 C.3     
  13 C13            4.6697     2.1320    -0.1125 C.2     
  14 O14            5.2410     3.2056    -0.1089 O.2     
  15 N15            5.3794     0.9906    -0.0133 N.am    
  16 C16            6.8392     1.0431     0.0989 C.3     
  17 C17            7.4288    -0.2477    -0.4083 C.2     
  18 C18            6.5995     0.1384     2.4155 C.3     
  19 N19            8.6705    -0.2615    -0.9320 N.am    
  20 O20            6.7858    -1.2741    -0.3452 O.2     
  21 C21            7.2312     1.2418     1.5644 C.3     
  22 C22            8.7542     1.1799     1.6979 C.3     
  23 C23            6.7321     2.6057     2.0455 C.3     
  24 C24            9.2013    -1.4909    -1.5262 C.3     
  25 C25           -1.0305    -1.5921    -1.2782 C.ar    
  26 N26           -2.0840    -1.3584    -0.5199 N.ar    
  27 C27           -2.1476    -0.3182     0.2892 C.ar    
  28 C28           -1.1048     0.5811     0.3713 C.ar    
  29 Cl29           1.4430    -1.0624    -2.2573 Cl      
  30 H30           -0.8679     2.9181    -1.0766 H       
  31 H31           -0.5122     3.6567     0.5033 H       
  32 H32            0.9998     4.6526    -1.8985 H       
  33 H33           -0.7011     5.1411    -1.7196 H       
  34 H34            0.7812     6.7882    -0.6456 H       
  35 H35           -0.2139     5.9627     0.5726 H       
  36 H36            2.3953     6.2684     0.9441 H       
  37 H37            1.5848     4.7590     1.4271 H       
  38 H38            3.7945     4.7126    -0.0782 H       
  39 H39            2.6222     4.9835    -1.3920 H       
  40 H40            4.9237     0.1343    -0.0161 H       
  41 H41            7.2195     1.8743    -0.4948 H       
  42 H42            6.9550    -0.8333     2.0727 H       
  43 H43            6.8788     0.2799     3.4595 H       
  44 H44            5.5145     0.1825     2.3204 H       
  45 H45            9.2128     0.5426    -0.9155 H       
  46 H46            9.2017     1.9995     1.1357 H       
  47 H47            9.0306     1.2665     2.7486 H       
  48 H48            9.1150     0.2296     1.3043 H       
  49 H49            5.6472     2.6498     1.9505 H       
  50 H50            7.0114     2.7473     3.0896 H       
  51 H51            7.1822     3.3918     1.4392 H       
  52 H52            9.2247    -2.2780    -0.7725 H       
  53 H53            8.5629    -1.7993    -2.3541 H       
  54 H54           10.2113    -1.3100    -1.8940 H       
  55 H55           -1.0215    -2.4560    -1.9262 H       
  56 H56           -3.0306    -0.1660     0.8922 H       
  57 H57           -1.1643     1.4300     1.0363 H       
@<TRIPOS>BOND
   1    1    2 ar
   2    1    3 1
   3    1   28 ar
   4    2   25 ar
   5    2   29 1
   6    3    4 1
   7    3    7 2
   8    4    5 1
   9    4    8 1
  10    5    6 2
  11    5   12 1
  12    6    7 1
  13    6   13 1
  14    8    9 1
  15    8   30 1
  16    8   31 1
  17    9   10 1
  18    9   32 1
  19    9   33 1
  20   10   11 1
  21   10   34 1
  22   10   35 1
  23   11   12 1
  24   11   36 1
  25   11   37 1
  26   12   38 1
  27   12   39 1
  28   13   14 2
  29   13   15 am
  30   15   16 1
  31   15   40 1
  32   16   21 1
  33   16   17 1
  34   16   41 1
  35   17   19 am
  36   17   20 2
  37   18   21 1
  38   18   42 1
  39   18   43 1
  40   18   44 1
  41   19   24 1
  42   19   45 1
  43   21   22 1
  44   21   23 1
  45   22   46 1
  46   22   47 1
  47   22   48 1
  48   23   49 1
  49   23   50 1
  50   23   51 1
  51   24   52 1
  52   24   53 1
  53   24   54 1
  54   25   26 ar
  55   25   55 1
  56   26   27 ar
  57   27   28 ar
  58   27   56 1
  59   28   57 1

#	End of record

