#	Name: ASD03331004
#	Creating user name:	WinNT
#	Creation time:	15. 06. 2019 20:38

#	Modifying user name:	WinNT
#	Modification time:	15. 06. 2019 20:38

#	Program:	/corina/corina34_cracker 3.40 0067  02.08.2006

@<TRIPOS>MOLECULE
ASD03331004
  64   67    0    0    0
SMALL
NO_CHARGES


@<TRIPOS>ATOM
   1 N1            -0.8731     1.7436    -0.4475 N.pl3   
   2 C2            -0.6919     0.4230    -0.1796 C.2     
   3 C3             0.6240    -0.2340     0.1460 C.3     
   4 N4             1.3254     0.5680     1.1606 N.3     
   5 C5             2.1608     1.5971     0.5386 C.3     
   6 C6             1.5214     2.1163    -0.7460 C.3     
   7 C7             0.1737     2.7693    -0.4272 C.3     
   8 C8            -2.1970     1.9269    -0.7220 C.2     
   9 N9            -2.8116     0.7727    -0.6109 N.2     
  10 C10           -1.9109    -0.1764    -0.2742 C.2     
  11 C11           -2.1964    -1.6046    -0.0502 C.2     
  12 O12           -1.2958    -2.3650     0.2496 O.2     
  13 N13           -3.4555    -2.0681    -0.1776 N.am    
  14 C14            2.1204    -0.2881     2.0511 C.3     
  15 C15           -2.8334     3.2121    -1.0839 C.ar    
  16 C16           -2.5619     4.3618    -0.3417 C.ar    
  17 C17           -3.1591     5.5592    -0.6852 C.ar    
  18 C18           -4.0268     5.6199    -1.7642 C.ar    
  19 C19           -4.3001     4.4844    -2.5038 C.ar    
  20 C20           -3.7044     3.2811    -2.1740 C.ar    
  21 C21           -4.9819    -3.8769    -0.7138 C.2     
  22 C22           -3.7393    -3.4880     0.0450 C.3     
  23 C23           -3.9553    -3.7368     1.5391 C.3     
  24 C24           -4.3854    -5.1887     1.7575 C.3     
  25 C25           -2.6511    -3.4722     2.2940 C.3     
  26 C26           -5.0455    -2.7981     2.0600 C.3     
  27 N27           -5.1169    -5.1311    -1.1883 N.am    
  28 C28           -6.1700    -5.8971    -1.8718 C.3     
  29 C29           -5.5643    -7.1694    -1.2630 C.3     
  30 C30           -4.2735    -6.3340    -1.2565 C.3     
  31 F31           -6.0540    -7.4861     0.0087 F       
  32 F32           -5.5321    -8.2632    -2.1346 F       
  33 O33           -5.8605    -3.0613    -0.8974 O.2     
  34 F34           -3.9685     2.1733    -2.9008 F       
  35 F35           -2.8972     6.6734     0.0326 F       
  36 H36            0.4445    -1.2365     0.5343 H       
  37 H37            1.2337    -0.2951    -0.7555 H       
  38 H38            2.2873     2.4253     1.2358 H       
  39 H39            3.1378     1.1731     0.3064 H       
  40 H40            2.1804     2.8519    -1.2072 H       
  41 H41            1.3677     1.2862    -1.4355 H       
  42 H42           -0.0480     3.5311    -1.1745 H       
  43 H43            0.2156     3.2277     0.5608 H       
  44 H44           -4.1737    -1.4616    -0.4167 H       
  45 H45            2.8118    -0.8865     1.4580 H       
  46 H46            2.6831     0.3345     2.7467 H       
  47 H47            1.4560    -0.9475     2.6096 H       
  48 H48           -1.8865     4.3157     0.4998 H       
  49 H49           -4.4917     6.5583    -2.0282 H       
  50 H50           -4.9771     4.5382    -3.3435 H       
  51 H51           -2.8978    -4.0860    -0.3049 H       
  52 H52           -3.5966    -5.8572     1.4124 H       
  53 H53           -4.5669    -5.3583     2.8188 H       
  54 H54           -5.2992    -5.3852     1.1967 H       
  55 H55           -2.3447    -2.4378     2.1384 H       
  56 H56           -2.8050    -3.6494     3.3584 H       
  57 H57           -1.8744    -4.1409     1.9229 H       
  58 H58           -5.9747    -2.9866     1.5223 H       
  59 H59           -5.1994    -2.9753     3.1245 H       
  60 H60           -4.7391    -1.7637     1.9045 H       
  61 H61           -7.1732    -5.6765    -1.5071 H       
  62 H62           -6.0982    -5.8594    -2.9587 H       
  63 H63           -3.7018    -6.4114    -2.1813 H       
  64 H64           -3.6610    -6.4856    -0.3677 H       
@<TRIPOS>BOND
   1    1    2 1
   2    1    7 1
   3    1    8 1
   4    2    3 1
   5    2   10 2
   6    3    4 1
   7    3   36 1
   8    3   37 1
   9    4    5 1
  10    4   14 1
  11    5    6 1
  12    5   38 1
  13    5   39 1
  14    6    7 1
  15    6   40 1
  16    6   41 1
  17    7   42 1
  18    7   43 1
  19    8    9 2
  20    8   15 1
  21    9   10 1
  22   10   11 1
  23   11   12 2
  24   11   13 am
  25   13   22 1
  26   13   44 1
  27   14   45 1
  28   14   46 1
  29   14   47 1
  30   15   16 ar
  31   15   20 ar
  32   16   17 ar
  33   16   48 1
  34   17   18 ar
  35   17   35 1
  36   18   19 ar
  37   18   49 1
  38   19   20 ar
  39   19   50 1
  40   20   34 1
  41   21   27 am
  42   21   33 2
  43   21   22 1
  44   22   23 1
  45   22   51 1
  46   23   24 1
  47   23   25 1
  48   23   26 1
  49   24   52 1
  50   24   53 1
  51   24   54 1
  52   25   55 1
  53   25   56 1
  54   25   57 1
  55   26   58 1
  56   26   59 1
  57   26   60 1
  58   27   28 1
  59   27   30 1
  60   28   29 1
  61   28   61 1
  62   28   62 1
  63   29   30 1
  64   29   31 1
  65   29   32 1
  66   30   63 1
  67   30   64 1

#	End of record

