#	Name: ASD01810324
#	Creating user name:	WinNT
#	Creation time:	15. 06. 2019 19:24

#	Modifying user name:	WinNT
#	Modification time:	15. 06. 2019 19:24

#	Program:	/corina/corina34_cracker 3.40 0067  02.08.2006

@<TRIPOS>MOLECULE
ASD01810324
  71   76    0    0    0
SMALL
NO_CHARGES


@<TRIPOS>ATOM
   1 C1            -0.0140     1.3802    -0.0826 C.ar    
   2 C2             0.0047    -0.0035    -0.0900 C.ar    
   3 C3             1.1962    -0.6956    -0.0138 C.ar    
   4 C4             2.4010    -0.0059     0.0725 C.ar    
   5 C5             2.3886     1.4001     0.0804 C.ar    
   6 C6             1.1727     2.0935     0.0021 C.ar    
   7 N7             3.5953    -0.6905     0.1499 N.pl3   
   8 C8             4.7810    -0.0728     0.2352 C.2     
   9 C9             4.8937     1.3021     0.2520 C.2     
  10 C10            3.6697     2.1175     0.1720 C.2     
  11 O11            3.7161     3.3354     0.1828 O.2     
  12 C12            3.5664    -2.1551     0.1388 C.3     
  13 C13            3.6534    -2.6485    -1.2825 C.ar    
  14 C14            4.8896    -2.8983    -1.8507 C.ar    
  15 C15            4.9752    -3.3503    -3.1519 C.ar    
  16 C16            3.8133    -3.5553    -3.8934 C.ar    
  17 C17            2.5705    -3.3025    -3.3158 C.ar    
  18 C18            2.4966    -2.8553    -2.0121 C.ar    
  19 C19            3.8990    -4.0406    -5.2928 C.ar    
  20 C20            6.2129     1.9424     0.3471 C.2     
  21 O21            6.3101     3.2869     0.3626 O.3     
  22 O22            7.2167     1.2596     0.4118 O.2     
  23 C23            5.1363    -4.2949    -5.8767 C.ar    
  24 N24            5.2178    -4.7256    -7.1198 N.ar    
  25 C25            4.1378    -4.9329    -7.8577 C.ar    
  26 C26            2.8654    -4.7006    -7.3421 C.ar    
  27 C27            2.7361    -4.2544    -6.0420 C.ar    
  28 N28            4.2761    -5.3876    -9.1630 N.3     
  29 C29            5.6926    -5.5678    -9.5106 C.3     
  30 C30            5.7988    -6.1435   -10.9247 C.3     
  31 N31            5.1387    -5.2341   -11.8719 N.3     
  32 C32            3.7223    -5.0539   -11.5243 C.3     
  33 C33            3.6160    -4.4783   -10.1102 C.3     
  34 N34            1.1564     3.4832     0.0097 N.3     
  35 C35            0.4756     3.9953     1.2072 C.3     
  36 C36            0.5487     5.5241     1.2177 C.3     
  37 N37           -0.0749     6.0501    -0.0046 N.3     
  38 C38            0.6059     5.5380    -1.2021 C.3     
  39 C39            0.5328     4.0093    -1.2126 C.3     
  40 H40           -0.9550     1.9062    -0.1474 H       
  41 H41           -0.9251    -0.5489    -0.1559 H       
  42 H42            1.1931    -1.7755    -0.0208 H       
  43 H43            5.6783    -0.6710     0.2932 H       
  44 H44            4.4119    -2.5395     0.7092 H       
  45 H45            2.6365    -2.5036     0.5880 H       
  46 H46            5.7895    -2.7390    -1.2751 H       
  47 H47            5.9409    -3.5443    -3.5948 H       
  48 H48            1.6669    -3.4593    -3.8860 H       
  49 H49            1.5340    -2.6594    -1.5633 H       
  50 H50            7.1990     3.6621     0.4263 H       
  51 H51            6.0393    -4.1372    -5.3054 H       
  52 H52            1.9897    -4.8719    -7.9506 H       
  53 H53            1.7616    -4.0661    -5.6163 H       
  54 H54            6.2022    -4.6051    -9.4706 H       
  55 H55            6.1562    -6.2547    -8.8026 H       
  56 H56            6.8492    -6.2509   -11.1956 H       
  57 H57            5.3128    -7.1185   -10.9579 H       
  58 H58            5.6166    -4.3464   -11.9137 H       
  59 H59            3.2587    -4.3670   -12.2323 H       
  60 H60            3.2127    -6.0166   -11.5643 H       
  61 H61            2.5657    -4.3708    -9.8392 H       
  62 H62            4.1020    -3.5032   -10.0770 H       
  63 H63           -0.5681     3.6812     1.1945 H       
  64 H64            0.9633     3.6018     2.0990 H       
  65 H65            0.0193     5.9075     2.0900 H       
  66 H66            1.5917     5.8380     1.2579 H       
  67 H67           -1.0604     5.8351    -0.0291 H       
  68 H68            0.1182     5.9315    -2.0939 H       
  69 H69            1.6495     5.8521    -1.1894 H       
  70 H70            1.0621     3.6259    -2.0849 H       
  71 H71           -0.5103     3.6953    -1.2528 H       
@<TRIPOS>BOND
   1    1    2 ar
   2    1    6 ar
   3    1   40 1
   4    2    3 ar
   5    2   41 1
   6    3    4 ar
   7    3   42 1
   8    4    5 ar
   9    4    7 1
  10    5    6 ar
  11    5   10 1
  12    6   34 1
  13    7    8 1
  14    7   12 1
  15    8    9 2
  16    8   43 1
  17    9   10 1
  18    9   20 1
  19   10   11 2
  20   12   13 1
  21   12   44 1
  22   12   45 1
  23   13   14 ar
  24   13   18 ar
  25   14   15 ar
  26   14   46 1
  27   15   16 ar
  28   15   47 1
  29   16   17 ar
  30   16   19 1
  31   17   18 ar
  32   17   48 1
  33   18   49 1
  34   19   23 ar
  35   19   27 ar
  36   20   21 1
  37   20   22 2
  38   21   50 1
  39   23   24 ar
  40   23   51 1
  41   24   25 ar
  42   25   26 ar
  43   25   28 1
  44   26   27 ar
  45   26   52 1
  46   27   53 1
  47   28   29 1
  48   28   33 1
  49   29   30 1
  50   29   54 1
  51   29   55 1
  52   30   31 1
  53   30   56 1
  54   30   57 1
  55   31   32 1
  56   31   58 1
  57   32   33 1
  58   32   59 1
  59   32   60 1
  60   33   61 1
  61   33   62 1
  62   34   35 1
  63   34   39 1
  64   35   36 1
  65   35   63 1
  66   35   64 1
  67   36   37 1
  68   36   65 1
  69   36   66 1
  70   37   38 1
  71   37   67 1
  72   38   39 1
  73   38   68 1
  74   38   69 1
  75   39   70 1
  76   39   71 1

#	End of record

