#	Name: ASD01870214
#	Creating user name:	WinNT
#	Creation time:	15. 06. 2019 19:38

#	Modifying user name:	WinNT
#	Modification time:	15. 06. 2019 19:38

#	Program:	/corina/corina34_cracker 3.40 0067  02.08.2006

@<TRIPOS>MOLECULE
ASD01870214
  52   56    0    0    0
SMALL
NO_CHARGES


@<TRIPOS>ATOM
   1 Cl1            3.6983    -4.1238    -5.7188 Cl      
   2 C2            -0.0168     1.3885     0.0097 C.ar    
   3 C3             0.0021    -0.0041     0.0020 C.ar    
   4 C4             1.1792    -0.6916    -0.0125 C.ar    
   5 C5             2.3912     0.0116    -0.0203 C.ar    
   6 C6             2.3718     1.4326    -0.0130 C.ar    
   7 C7             1.1419     2.1061     0.0025 C.ar    
   8 C8             3.6358    -0.6449    -0.0358 C.ar    
   9 N9             4.7484     0.0414    -0.0428 N.ar    
  10 C10            4.7765     1.3812    -0.0363 C.ar    
  11 C11            3.5985     2.1088    -0.0216 C.ar    
  12 C12            5.9063     2.3358    -0.0427 C.2     
  13 N13            5.4506     3.5999    -0.0323 N.am    
  14 C14            3.9835     3.5653    -0.0184 C.3     
  15 C15            6.2785     4.8085    -0.0336 C.3     
  16 C16            7.1502     4.8282    -1.2908 C.3     
  17 C17            8.0149     6.0905    -1.2922 C.3     
  18 C18            8.9096     6.0971    -0.0510 C.3     
  19 C19            8.0378     6.0774     1.2062 C.3     
  20 C20            7.1732     4.8152     1.2075 C.3     
  21 C21            3.6864    -2.1511    -0.0438 C.3     
  22 C22            3.6894    -2.6460    -1.4672 C.ar    
  23 C23            4.8874    -2.8326    -2.1313 C.ar    
  24 C24            4.8908    -3.2866    -3.4368 C.ar    
  25 C25            3.6949    -3.5541    -4.0789 C.ar    
  26 C26            2.4963    -3.3672    -3.4138 C.ar    
  27 C27            2.4944    -2.9186    -2.1064 C.ar    
  28 O28            7.0804     2.0215    -0.0554 O.2     
  29 O29            6.3146     4.8221    -2.4500 O.3     
  30 H30           -0.9639     1.9075     0.0170 H       
  31 H31           -0.9309    -0.5481     0.0080 H       
  32 H32            1.1776    -1.7716    -0.0176 H       
  33 H33            1.1130     3.1857     0.0078 H       
  34 H34            3.5885     4.0595    -0.9060 H       
  35 H35            3.6056     4.0510     0.8812 H       
  36 H36            5.6360     5.6890    -0.0231 H       
  37 H37            7.7926     3.9478    -1.3013 H       
  38 H38            8.6359     6.1045    -2.1878 H       
  39 H39            7.3724     6.9710    -1.2816 H       
  40 H40            9.5520     5.2166    -0.0616 H       
  41 H41            9.5255     6.9964    -0.0520 H       
  42 H42            8.6752     6.0821     2.0904 H       
  43 H43            7.3954     6.9579     1.2167 H       
  44 H44            6.5521     4.8011     2.1032 H       
  45 H45            7.8156     3.9347     1.1970 H       
  46 H46            4.5931    -2.4868     0.4595 H       
  47 H47            2.8142    -2.5467     0.4766 H       
  48 H48            5.8209    -2.6234    -1.6300 H       
  49 H49            5.8268    -3.4320    -3.9556 H       
  50 H50            1.5624    -3.5759    -3.9145 H       
  51 H51            1.5587    -2.7726    -1.5871 H       
  52 H52            6.8011     4.8338    -3.2856 H       
@<TRIPOS>BOND
   1    1   25 1
   2    2    3 ar
   3    2    7 ar
   4    2   30 1
   5    3    4 ar
   6    3   31 1
   7    4    5 ar
   8    4   32 1
   9    5    6 ar
  10    5    8 ar
  11    6    7 ar
  12    6   11 ar
  13    7   33 1
  14    8    9 ar
  15    8   21 1
  16    9   10 ar
  17   10   11 ar
  18   10   12 1
  19   11   14 1
  20   12   13 am
  21   12   28 2
  22   13   14 1
  23   13   15 1
  24   14   34 1
  25   14   35 1
  26   15   16 1
  27   15   20 1
  28   15   36 1
  29   16   17 1
  30   16   29 1
  31   16   37 1
  32   17   18 1
  33   17   38 1
  34   17   39 1
  35   18   19 1
  36   18   40 1
  37   18   41 1
  38   19   20 1
  39   19   42 1
  40   19   43 1
  41   20   44 1
  42   20   45 1
  43   21   22 1
  44   21   46 1
  45   21   47 1
  46   22   23 ar
  47   22   27 ar
  48   23   24 ar
  49   23   48 1
  50   24   25 ar
  51   24   49 1
  52   25   26 ar
  53   26   27 ar
  54   26   50 1
  55   27   51 1
  56   29   52 1

#	End of record

