#	Name: ASD01940343
#	Creating user name:	WinNT
#	Creation time:	15. 06. 2019 20:12

#	Modifying user name:	WinNT
#	Modification time:	15. 06. 2019 20:12

#	Program:	/corina/corina34_cracker 3.40 0067  02.08.2006

@<TRIPOS>MOLECULE
ASD01940343
  39   41    0    0    0
SMALL
NO_CHARGES


@<TRIPOS>ATOM
   1 C1             0.1191     2.0721    -1.4482 C.ar    
   2 C2             0.4292     0.7721    -1.8110 C.ar    
   3 C3             1.5656     0.5157    -2.5589 C.ar    
   4 C4             2.3893     1.5572    -2.9427 C.ar    
   5 C5             2.0790     2.8543    -2.5796 C.ar    
   6 C6             0.9441     3.1116    -1.8331 C.ar    
   7 S7            -1.3307     2.4012    -0.5025 S.o2    
   8 O8            -1.3197     1.4826     0.5816 O.2     
   9 O9            -1.3838     3.8103    -0.3267 O.2     
  10 N10           -2.6320     1.9980    -1.4439 N.am    
  11 F11           -0.3763    -0.2451    -1.4349 F       
  12 C12           -2.8550     0.6599    -1.7951 C.ar    
  13 C13           -2.7440     0.2592    -3.1260 C.ar    
  14 C14           -2.9655    -1.0678    -3.4682 C.ar    
  15 C15           -3.2960    -1.9894    -2.4869 C.ar    
  16 C16           -3.4059    -1.5891    -1.1666 C.ar    
  17 C17           -3.1808    -0.2693    -0.8191 C.ar    
  18 N18           -2.4102     1.1938    -4.1158 N.pl3   
  19 C19           -2.6571     0.9054    -5.4616 C.ar    
  20 C20           -3.9587     0.9321    -5.9531 C.ar    
  21 C21           -4.1984     0.6468    -7.2842 C.ar    
  22 C22           -3.1456     0.3347    -8.1264 C.ar    
  23 C23           -1.8514     0.3071    -7.6399 C.ar    
  24 C24           -1.6038     0.5973    -6.3118 C.ar    
  25 I25           -3.5134    -0.0978   -10.1431 I       
  26 F26           -4.9864     1.2359    -5.1306 F       
  27 F27           -3.5115    -3.2808    -2.8200 F       
  28 F28           -2.8596    -1.4605    -4.7564 F       
  29 H29            1.8087    -0.4978    -2.8421 H       
  30 H30            3.2759     1.3574    -3.5262 H       
  31 H31            2.7236     3.6674    -2.8794 H       
  32 H32            0.7022     4.1256    -1.5506 H       
  33 H33           -3.2399     2.6881    -1.7523 H       
  34 H34           -3.6643    -2.3099    -0.4051 H       
  35 H35           -3.2628     0.0384     0.2129 H       
  36 H36           -2.0078     2.0407    -3.8672 H       
  37 H37           -5.2080     0.6671    -7.6672 H       
  38 H38           -1.0324     0.0624    -8.3000 H       
  39 H39           -0.5921     0.5798    -5.9343 H       
@<TRIPOS>BOND
   1    1    2 ar
   2    1    6 ar
   3    1    7 1
   4    2    3 ar
   5    2   11 1
   6    3    4 ar
   7    3   29 1
   8    4    5 ar
   9    4   30 1
  10    5    6 ar
  11    5   31 1
  12    6   32 1
  13    7    8 2
  14    7    9 2
  15    7   10 am
  16   10   12 1
  17   10   33 1
  18   12   13 ar
  19   12   17 ar
  20   13   14 ar
  21   13   18 1
  22   14   15 ar
  23   14   28 1
  24   15   16 ar
  25   15   27 1
  26   16   17 ar
  27   16   34 1
  28   17   35 1
  29   18   19 1
  30   18   36 1
  31   19   20 ar
  32   19   24 ar
  33   20   21 ar
  34   20   26 1
  35   21   22 ar
  36   21   37 1
  37   22   23 ar
  38   22   25 1
  39   23   24 ar
  40   23   38 1
  41   24   39 1

#	End of record

