#	Name: ASD05380204
#	Creating user name:	WinNT
#	Creation time:	15. 06. 2019 20:59

#	Modifying user name:	WinNT
#	Modification time:	15. 06. 2019 20:59

#	Program:	/corina/corina34_cracker 3.40 0067  02.08.2006

@<TRIPOS>MOLECULE
ASD05380204
  48   52    0    0    0
SMALL
NO_CHARGES


@<TRIPOS>ATOM
   1 C1             0.4803     1.9071     1.4929 C.ar    
   2 C2             0.3814     0.5382     1.7033 C.ar    
   3 C3             1.3689    -0.3160     1.2659 C.ar    
   4 C4             2.4841     0.1985     0.6020 C.ar    
   5 C5             2.5812     1.5919     0.3892 C.ar    
   6 C6             1.5711     2.4389     0.8402 C.ar    
   7 N7             3.4800    -0.6067     0.1549 N.2     
   8 C8             4.5172    -0.1279    -0.4622 C.2     
   9 N9             4.6935     1.1982    -0.7102 N.am    
  10 C10            3.7680     2.1022    -0.3126 C.2     
  11 C11            5.5801    -1.0899    -0.9270 C.3     
  12 C12            5.8402     1.7397    -2.7663 C.ar    
  13 C13            5.8431     1.6318    -1.3824 C.ar    
  14 C14            6.9774     2.1688    -3.4271 C.ar    
  15 C15            8.1168     2.4900    -2.7084 C.ar    
  16 C16            8.1206     2.3828    -1.3299 C.ar    
  17 C17            6.9880     1.9550    -0.6655 C.ar    
  18 N18            5.7127    -2.1779     0.0450 N.pl3   
  19 C19            6.9035    -2.8755     0.1444 C.ar    
  20 N20            7.9354    -2.5705    -0.6345 N.ar    
  21 C21            9.0812    -3.2338    -0.5459 C.ar    
  22 C22            7.0491    -3.9181     1.0756 C.ar    
  23 O23            3.9125     3.2915    -0.5280 O.2     
  24 C24            8.2802    -4.5920     1.1337 C.ar    
  25 N25            6.2401    -4.4829     2.0055 N.2     
  26 C26            6.8811    -5.4368     2.6151 C.2     
  27 N27            8.1451    -5.5437     2.1126 N.pl3   
  28 N28            9.2591    -4.2246     0.3129 N.ar    
  29 C29            5.1857    -1.6671    -2.2879 C.3     
  30 N30           10.1269    -2.8770    -1.3813 N.pl3   
  31 F31            6.9766     2.2740    -4.7740 F       
  32 H32           -0.3067     2.5602     1.8399 H       
  33 H33           -0.4806     0.1385     2.2167 H       
  34 H34            1.2814    -1.3789     1.4359 H       
  35 H35            1.6426     3.5044     0.6794 H       
  36 H36            6.5311    -0.5649    -1.0167 H       
  37 H37            4.9528     1.4849    -3.3266 H       
  38 H38            9.0040     2.8245    -3.2255 H       
  39 H39            9.0106     2.6336    -0.7720 H       
  40 H40            6.9924     1.8721     0.4113 H       
  41 H41            4.9658    -2.4093     0.6190 H       
  42 H42            6.4732    -6.0528     3.4029 H       
  43 H43            8.8236    -6.1766     2.3954 H       
  44 H44            4.9958    -0.8525    -2.9868 H       
  45 H45            5.9960    -2.2897    -2.6671 H       
  46 H46            4.2843    -2.2702    -2.1794 H       
  47 H47           10.0143    -2.1533    -2.0173 H       
  48 H48           10.9717    -3.3509    -1.3304 H       
@<TRIPOS>BOND
   1    1    2 ar
   2    1    6 ar
   3    1   32 1
   4    2    3 ar
   5    2   33 1
   6    3    4 ar
   7    3   34 1
   8    4    5 ar
   9    4    7 1
  10    5    6 ar
  11    5   10 1
  12    6   35 1
  13    7    8 2
  14    8    9 1
  15    8   11 1
  16    9   10 am
  17    9   13 1
  18   10   23 2
  19   11   18 1
  20   11   29 1
  21   11   36 1
  22   12   13 ar
  23   12   14 ar
  24   12   37 1
  25   13   17 ar
  26   14   15 ar
  27   14   31 1
  28   15   16 ar
  29   15   38 1
  30   16   17 ar
  31   16   39 1
  32   17   40 1
  33   18   19 1
  34   18   41 1
  35   19   20 ar
  36   19   22 ar
  37   20   21 ar
  38   21   30 1
  39   21   28 ar
  40   22   24 ar
  41   22   25 1
  42   24   28 ar
  43   24   27 1
  44   25   26 2
  45   26   27 1
  46   26   42 1
  47   27   43 1
  48   29   44 1
  49   29   45 1
  50   29   46 1
  51   30   47 1
  52   30   48 1

#	End of record

