#	Name: ASD01884277
#	Creating user name:	WinNT
#	Creation time:	15. 06. 2019 19:47

#	Modifying user name:	WinNT
#	Modification time:	15. 06. 2019 19:47

#	Program:	/corina/corina34_cracker 3.40 0067  02.08.2006

@<TRIPOS>MOLECULE
ASD01884277
  35   38    0    0    0
SMALL
NO_CHARGES


@<TRIPOS>ATOM
   1 C1            -0.1024     1.5592    -0.0888 C.ar    
   2 C2            -0.3134     0.2093     0.1599 C.ar    
   3 C3            -1.5734    -0.3338     0.0703 C.ar    
   4 C4            -2.6763     0.4617    -0.2749 C.ar    
   5 C5            -2.4456     1.8158    -0.5213 C.ar    
   6 C6            -1.1797     2.3641    -0.4253 C.ar    
   7 N7            -3.9990     0.0723    -0.4074 N.am    
   8 C8            -4.9062     0.9930    -0.7471 C.2     
   9 S9            -4.0196     2.5164    -0.9228 S.3     
  10 O10           -6.1007     0.8195    -0.9045 O.2     
  11 C11           -4.3951    -1.3197    -0.1803 C.3     
  12 C12           -4.7585    -1.5127     1.2933 C.3     
  13 C13           -5.3129    -2.8760     1.7116 C.3     
  14 C14           -3.8936    -2.4709     2.1146 C.3     
  15 F15           -2.8309    -3.1036     1.4607 F       
  16 F16           -3.6704    -2.1496     3.4578 F       
  17 O17            1.1472     2.0871     0.0023 O.3     
  18 C18            1.4413     2.8439     1.0894 C.ar    
  19 N19            0.5582     2.9568     2.0674 N.ar    
  20 C20            2.6706     3.4890     1.1675 C.ar    
  21 C21            2.9576     4.2581     2.2825 C.ar    
  22 C22            2.0009     4.3550     3.2839 C.ar    
  23 C23            0.8037     3.6825     3.1419 C.ar    
  24 Cl24           3.8298     3.3319    -0.1152 Cl      
  25 H25            0.5219    -0.4212     0.4265 H       
  26 H26           -1.7158    -1.3861     0.2677 H       
  27 H27           -1.0292     3.4154    -0.6213 H       
  28 H28           -5.2585    -1.5578    -0.8016 H       
  29 H29           -3.5675    -1.9799    -0.4399 H       
  30 H30           -5.1540    -0.6319     1.7992 H       
  31 H31           -6.0727    -2.8921     2.4929 H       
  32 H32           -5.4187    -3.6355     0.9369 H       
  33 H33            3.9041     4.7706     2.3713 H       
  34 H34            2.1932     4.9465     4.1669 H       
  35 H35            0.0565     3.7549     3.9183 H       
@<TRIPOS>BOND
   1    1    2 ar
   2    1   17 1
   3    1    6 ar
   4    2    3 ar
   5    2   25 1
   6    3    4 ar
   7    3   26 1
   8    4    5 ar
   9    4    7 1
  10    5    6 ar
  11    5    9 1
  12    6   27 1
  13    7    8 am
  14    7   11 1
  15    8    9 1
  16    8   10 2
  17   11   12 1
  18   11   28 1
  19   11   29 1
  20   12   13 1
  21   12   14 1
  22   12   30 1
  23   13   14 1
  24   13   31 1
  25   13   32 1
  26   14   15 1
  27   14   16 1
  28   17   18 1
  29   18   19 ar
  30   18   20 ar
  31   19   23 ar
  32   20   21 ar
  33   20   24 1
  34   21   22 ar
  35   21   33 1
  36   22   23 ar
  37   22   34 1
  38   23   35 1

#	End of record

