#	Name: ASD01916981
#	Creating user name:	WinNT
#	Creation time:	15. 06. 2019 20:08

#	Modifying user name:	WinNT
#	Modification time:	15. 06. 2019 20:08

#	Program:	/corina/corina34_cracker 3.40 0067  02.08.2006

@<TRIPOS>MOLECULE
ASD01916981
  61   65    0    0    0
SMALL
NO_CHARGES


@<TRIPOS>ATOM
   1 C1            -0.0167     1.3082     0.0934 C.2     
   2 N2            -0.0000     0.0191    -0.1695 N.2     
   3 N3            -1.3362    -0.4129    -0.1796 N.pl3   
   4 C4            -2.0928     0.6774     0.0860 C.2     
   5 N5            -1.2846     1.7027     0.2528 N.2     
   6 C6             1.1783     2.1816     0.2019 C.ar    
   7 C7             2.4529     1.6486     0.0199 C.ar    
   8 C8             1.0295     3.5385     0.4803 C.ar    
   9 C9             2.1444     4.3464     0.5796 C.ar    
  10 C10            3.4073     3.8112     0.4028 C.ar    
  11 C11           -1.8162    -1.7744    -0.4288 C.3     
  12 C12           -1.8528    -2.5395     0.8690 C.2     
  13 N13           -2.2648    -3.8227     0.8834 N.am    
  14 O14           -1.5116    -2.0006     1.9006 O.2     
  15 C15           -2.3082    -4.5876     2.1389 C.3     
  16 C16           -3.6957    -5.2241     2.2734 C.3     
  17 N17           -3.9943    -6.0003     1.0625 N.3     
  18 C18           -4.0556    -5.1353    -0.1233 C.3     
  19 C19           -2.6887    -4.4933    -0.3550 C.3     
  20 C20           -5.1664    -6.7210     1.2118 C.ar    
  21 N21           -5.5900    -7.4811     0.2127 N.ar    
  22 C22           -6.7060    -8.1826     0.3229 C.ar    
  23 C23           -7.4335    -8.1151     1.5007 C.ar    
  24 C24           -6.9618    -7.3101     2.5257 C.ar    
  25 N25           -5.8354    -6.6386     2.3525 N.ar    
  26 C26           -3.5695     0.7099     0.1781 C.ar    
  27 C27            3.5606     2.4654     0.1214 C.ar    
  28 C28           -4.2533     1.9179     0.0406 C.ar    
  29 C29           -5.6302     1.9415     0.1269 C.ar    
  30 C30           -6.3324     0.7705     0.3495 C.ar    
  31 C31           -5.6600    -0.4307     0.4867 C.ar    
  32 C32           -4.2836    -0.4682     0.3971 C.ar    
  33 C33            1.9850     5.8144     0.8807 C.3     
  34 C34            4.6206     4.6984     0.5114 C.3     
  35 H35            2.5737     0.5981    -0.1998 H       
  36 H36            0.0437     3.9576     0.6178 H       
  37 H37           -2.8185    -1.7339    -0.8551 H       
  38 H38           -1.1445    -2.2744    -1.1265 H       
  39 H39           -1.5477    -5.3681     2.1186 H       
  40 H40           -2.1287    -3.9194     2.9812 H       
  41 H41           -3.7107    -5.8835     3.1411 H       
  42 H42           -4.4443    -4.4416     2.3977 H       
  43 H43           -4.3316    -5.7305    -0.9937 H       
  44 H44           -4.7992    -4.3541     0.0344 H       
  45 H45           -2.7586    -3.7645    -1.1625 H       
  46 H46           -1.9619    -5.2631    -0.6147 H       
  47 H47           -7.0464    -8.8001    -0.4952 H       
  48 H48           -8.3483    -8.6772     1.6171 H       
  49 H49           -7.5052    -7.2352     3.4560 H       
  50 H50            4.5491     2.0526    -0.0157 H       
  51 H51           -3.7062     2.8328    -0.1328 H       
  52 H52           -6.1609     2.8762     0.0210 H       
  53 H53           -7.4101     0.7942     0.4166 H       
  54 H54           -6.2137    -1.3415     0.6603 H       
  55 H55           -3.7597    -1.4066     0.5041 H       
  56 H56            2.0021     5.9679     1.9597 H       
  57 H57            2.8024     6.3703     0.4215 H       
  58 H58            1.0351     6.1667     0.4786 H       
  59 H59            4.9692     4.7123     1.5441 H       
  60 H60            5.4107     4.3141    -0.1337 H       
  61 H61            4.3594     5.7106     0.2025 H       
@<TRIPOS>BOND
   1    1    2 2
   2    1    6 1
   3    1    5 1
   4    2    3 1
   5    3    4 1
   6    3   11 1
   7    4    5 2
   8    4   26 1
   9    6    7 ar
  10    6    8 ar
  11    7   27 ar
  12    7   35 1
  13    8    9 ar
  14    8   36 1
  15    9   10 ar
  16    9   33 1
  17   10   27 ar
  18   10   34 1
  19   11   12 1
  20   11   37 1
  21   11   38 1
  22   12   13 am
  23   12   14 2
  24   13   15 1
  25   13   19 1
  26   15   16 1
  27   15   39 1
  28   15   40 1
  29   16   17 1
  30   16   41 1
  31   16   42 1
  32   17   18 1
  33   17   20 1
  34   18   19 1
  35   18   43 1
  36   18   44 1
  37   19   45 1
  38   19   46 1
  39   20   21 ar
  40   20   25 ar
  41   21   22 ar
  42   22   23 ar
  43   22   47 1
  44   23   24 ar
  45   23   48 1
  46   24   25 ar
  47   24   49 1
  48   26   28 ar
  49   26   32 ar
  50   27   50 1
  51   28   29 ar
  52   28   51 1
  53   29   30 ar
  54   29   52 1
  55   30   31 ar
  56   30   53 1
  57   31   32 ar
  58   31   54 1
  59   32   55 1
  60   33   56 1
  61   33   57 1
  62   33   58 1
  63   34   59 1
  64   34   60 1
  65   34   61 1

#	End of record

