#	Name: ASD03091276
#	Creating user name:	WinNT
#	Creation time:	15. 06. 2019 20:30

#	Modifying user name:	WinNT
#	Modification time:	15. 06. 2019 20:30

#	Program:	/corina/corina34_cracker 3.40 0067  02.08.2006

@<TRIPOS>MOLECULE
ASD03091276
  43   45    0    0    0
SMALL
NO_CHARGES


@<TRIPOS>ATOM
   1 C1            -0.0167     1.3781     0.0096 C.ar    
   2 C2             0.0021    -0.0041     0.0020 C.ar    
   3 C3             1.2084    -0.6789    -0.0132 C.ar    
   4 C4             2.3960     0.0285    -0.0212 C.ar    
   5 C5             2.3773     1.4107    -0.0145 C.ar    
   6 C6             1.1710     2.0855     0.0021 C.ar    
   7 C7             3.6720     2.1819    -0.0223 C.3     
   8 C8             3.9214     3.1320    -1.1954 C.3     
   9 C9             3.5941     3.6953     0.1890 C.3     
  10 C10            2.8535     3.2249    -2.2546 C.2     
  11 N11            3.0209     4.0461    -3.3102 N.am    
  12 O12            1.8433     2.5608    -2.1573 O.2     
  13 C13            1.9828     4.1364    -4.3399 C.3     
  14 C14            2.6019     4.5821    -5.6396 C.ar    
  15 C15            2.1886     4.0153    -6.8311 C.ar    
  16 C16            2.7545     4.4221    -8.0238 C.ar    
  17 C17            3.7383     5.4004    -8.0254 C.ar    
  18 C18            4.1512     5.9676    -6.8285 C.ar    
  19 C19            3.5781     5.5613    -5.6390 C.ar    
  20 C20            0.9215     5.1497    -3.9066 C.3     
  21 O21            4.2969     5.8020    -9.1974 O.3     
  22 C22            5.3038     6.8132    -9.1232 C.3     
  23 H23           -0.9592     1.9054     0.0170 H       
  24 H24           -0.9258    -0.5567     0.0083 H       
  25 H25            1.2231    -1.7588    -0.0184 H       
  26 H26            3.3386    -0.4987    -0.0324 H       
  27 H27            1.1563     3.1654     0.0077 H       
  28 H28            4.5332     1.6590     0.3937 H       
  29 H29            4.9466     3.2343    -1.5509 H       
  30 H30            2.6065     4.1331     0.3336 H       
  31 H31            4.4041     4.1682     0.7442 H       
  32 H32            3.8288     4.5772    -3.3880 H       
  33 H33            1.5187     3.1594    -4.4747 H       
  34 H34            1.4230     3.2536    -6.8292 H       
  35 H35            2.4317     3.9788    -8.9542 H       
  36 H36            4.9168     6.7292    -6.8272 H       
  37 H37            3.8958     6.0059    -4.7075 H       
  38 H38            0.1491     5.2169    -4.6727 H       
  39 H39            0.4737     4.8273    -2.9665 H       
  40 H40            1.3855     6.1267    -3.7718 H       
  41 H41            5.6649     7.0406   -10.1262 H       
  42 H42            4.8824     7.7135    -8.6759 H       
  43 H43            6.1322     6.4569    -8.5109 H       
@<TRIPOS>BOND
   1    1    2 ar
   2    1    6 ar
   3    1   23 1
   4    2    3 ar
   5    2   24 1
   6    3    4 ar
   7    3   25 1
   8    4    5 ar
   9    4   26 1
  10    5    6 ar
  11    5    7 1
  12    6   27 1
  13    7    8 1
  14    7    9 1
  15    7   28 1
  16    8    9 1
  17    8   10 1
  18    8   29 1
  19    9   30 1
  20    9   31 1
  21   10   11 am
  22   10   12 2
  23   11   13 1
  24   11   32 1
  25   13   14 1
  26   13   20 1
  27   13   33 1
  28   14   15 ar
  29   14   19 ar
  30   15   16 ar
  31   15   34 1
  32   16   17 ar
  33   16   35 1
  34   17   18 ar
  35   17   21 1
  36   18   19 ar
  37   18   36 1
  38   19   37 1
  39   20   38 1
  40   20   39 1
  41   20   40 1
  42   21   22 1
  43   22   41 1
  44   22   42 1
  45   22   43 1

#	End of record

