#	Name: ASD03331952
#	Creating user name:	WinNT
#	Creation time:	15. 06. 2019 20:40

#	Modifying user name:	WinNT
#	Modification time:	15. 06. 2019 20:40

#	Program:	/corina/corina34_cracker 3.40 0067  02.08.2006

@<TRIPOS>MOLECULE
ASD03331952
  66   67    0    0    0
SMALL
NO_CHARGES


@<TRIPOS>ATOM
   1 C1             0.1608     1.2135     0.7160 C.2     
   2 N2             0.2487    -0.1104     0.9849 N.pl3   
   3 C3             1.5750    -0.4310     1.0451 C.2     
   4 N4             2.2781     0.6601     0.8402 N.2     
   5 C5             1.4336     1.6939     0.6369 C.2     
   6 C6             1.8194     3.0921     0.3764 C.2     
   7 O7             0.9621     3.9382     0.2079 O.2     
   8 N8             3.1222     3.4333     0.3249 N.am    
   9 C9             3.5058     4.8233     0.0659 C.3     
  10 C10            3.5320     5.0724    -1.4435 C.3     
  11 C11            4.4509     4.0487    -2.1134 C.3     
  12 C12            4.8741     5.0824     0.6417 C.2     
  13 C13            2.1167     4.9336    -2.0079 C.3     
  14 C14            4.0547     6.4838    -1.7184 C.3     
  15 O15            5.5413     4.1594     1.0588 O.2     
  16 N16            5.3566     6.3398     0.6930 N.am    
  17 C17            6.7175     6.5830     1.1777 C.3     
  18 C18           -0.8866    -1.0145     1.1886 C.3     
  19 C19           -1.9150    -0.7884     0.0761 C.3     
  20 C20           -2.8758     0.3250     0.4811 C.3     
  21 N21           -2.1936     1.3406     1.2860 N.3     
  22 C22           -1.1162     1.9904     0.5252 C.3     
  23 C23           -3.1472     2.3326     1.8003 C.3     
  24 C24            2.1248    -1.7739     1.2972 C.2     
  25 C25            4.0026    -3.3315     1.5897 C.3     
  26 C26            3.4401    -1.9575     1.3317 C.2     
  27 C27            4.9606    -3.7110     0.4587 C.3     
  28 C28            5.5317    -5.1060     0.7206 C.3     
  29 C29            6.4897    -5.4855    -0.4104 C.3     
  30 H30            3.8060     2.7585     0.4592 H       
  31 H31            2.7827     5.4926     0.5321 H       
  32 H32            4.0785     3.0432    -1.9175 H       
  33 H33            4.4696     4.2262    -3.1887 H       
  34 H34            5.4592     4.1476    -1.7112 H       
  35 H35            1.4621     5.6629    -1.5307 H       
  36 H36            2.1354     5.1111    -3.0832 H       
  37 H37            1.7444     3.9281    -1.8120 H       
  38 H38            5.0152     6.6188    -1.2211 H       
  39 H39            4.1789     6.6224    -2.7924 H       
  40 H40            3.3423     7.2156    -1.3376 H       
  41 H41            4.8027     7.0838     0.4091 H       
  42 H42            6.9286     7.6519     1.1468 H       
  43 H43            6.8076     6.2243     2.2030 H       
  44 H44            7.4290     6.0537     0.5438 H       
  45 H45           -0.5396    -2.0473     1.1595 H       
  46 H46           -1.3457    -0.8105     2.1559 H       
  47 H47           -1.3997    -0.5065    -0.8421 H       
  48 H48           -2.4757    -1.7080    -0.0916 H       
  49 H49           -3.2808     0.7924    -0.4165 H       
  50 H50           -3.6938    -0.1017     1.0616 H       
  51 H51           -0.9796     3.0101     0.8854 H       
  52 H52           -1.3770     2.0085    -0.5330 H       
  53 H53           -3.8898     1.8339     2.4231 H       
  54 H54           -2.6142     3.0749     2.3944 H       
  55 H55           -3.6451     2.8251     0.9651 H       
  56 H56            1.4586    -2.6094     1.4541 H       
  57 H57            4.5412    -3.3316     2.5373 H       
  58 H58            3.1885    -4.0549     1.6343 H       
  59 H59            4.1062    -1.1219     1.1748 H       
  60 H60            4.4221    -3.7109    -0.4890 H       
  61 H61            5.7747    -2.9876     0.4140 H       
  62 H62            6.0703    -5.1061     1.6682 H       
  63 H63            4.7176    -5.8294     0.7652 H       
  64 H64            6.8966    -6.4794    -0.2239 H       
  65 H65            5.9512    -5.4854    -1.3581 H       
  66 H66            7.3038    -4.7621    -0.4551 H       
@<TRIPOS>BOND
   1    1    2 1
   2    1    5 2
   3    1   22 1
   4    2    3 1
   5    2   18 1
   6    3    4 2
   7    3   24 1
   8    4    5 1
   9    5    6 1
  10    6    7 2
  11    6    8 am
  12    8    9 1
  13    8   30 1
  14    9   10 1
  15    9   12 1
  16    9   31 1
  17   10   11 1
  18   10   13 1
  19   10   14 1
  20   11   32 1
  21   11   33 1
  22   11   34 1
  23   12   15 2
  24   12   16 am
  25   13   35 1
  26   13   36 1
  27   13   37 1
  28   14   38 1
  29   14   39 1
  30   14   40 1
  31   16   17 1
  32   16   41 1
  33   17   42 1
  34   17   43 1
  35   17   44 1
  36   18   19 1
  37   18   45 1
  38   18   46 1
  39   19   20 1
  40   19   47 1
  41   19   48 1
  42   20   21 1
  43   20   49 1
  44   20   50 1
  45   21   22 1
  46   21   23 1
  47   22   51 1
  48   22   52 1
  49   23   53 1
  50   23   54 1
  51   23   55 1
  52   24   26 2
  53   24   56 1
  54   25   26 1
  55   25   27 1
  56   25   57 1
  57   25   58 1
  58   26   59 1
  59   27   28 1
  60   27   60 1
  61   27   61 1
  62   28   29 1
  63   28   62 1
  64   28   63 1
  65   29   64 1
  66   29   65 1
  67   29   66 1

#	End of record

