#	Name: ASD03430074
#	Creating user name:	WinNT
#	Creation time:	15. 06. 2019 20:40

#	Modifying user name:	WinNT
#	Modification time:	15. 06. 2019 20:40

#	Program:	/corina/corina34_cracker 3.40 0067  02.08.2006

@<TRIPOS>MOLECULE
ASD03430074
  42   47    0    0    0
SMALL
NO_CHARGES


@<TRIPOS>ATOM
   1 C1             0.4002     1.1557    -0.5307 C.ar    
   2 C2             0.3747    -0.2233    -0.4075 C.ar    
   3 C3             1.5481    -0.9247    -0.2244 C.ar    
   4 C4             2.7681    -0.2597    -0.1498 C.ar    
   5 C5             2.7916     1.1254    -0.2819 C.ar    
   6 C6             1.6170     1.8312    -0.4710 C.ar    
   7 O7             3.7937    -1.1322     0.0672 O.3     
   8 C8             1.8500    -2.3928    -0.0826 C.3     
   9 C9             3.3693    -2.4623    -0.2873 C.3     
  10 C10            0.5477    -3.9674     0.9857 C.ar    
  11 C11            1.4376    -2.9328     1.2542 C.ar    
  12 C12            1.1120    -3.2243    -1.0923 C.2     
  13 N13            0.3781    -4.1133    -0.3935 N.am    
  14 O14            1.1654    -3.1168    -2.2992 O.2     
  15 C15            1.7623    -2.6044     2.5626 C.ar    
  16 C16            1.1912    -3.3152     3.6180 C.ar    
  17 C17            0.3066    -4.3410     3.3523 C.ar    
  18 C18           -0.0153    -4.6682     2.0504 C.ar    
  19 C19            2.7150    -1.5001     2.8382 C.2     
  20 O20           -0.5992     2.0692    -0.7080 O.3     
  21 C21           -0.0229     3.3418    -0.3596 C.3     
  22 O22            1.3802     3.1673    -0.6246 O.3     
  23 C23           -0.4956    -5.1156    -1.0086 C.3     
  24 C24            3.9791    -1.5855     3.5779 C.2     
  25 C25            4.4965    -0.3454     3.5726 C.2     
  26 O26            3.6676     0.4705     2.9040 O.3     
  27 C27            2.5997    -0.2031     2.4529 C.2     
  28 H28           -0.5665    -0.7509    -0.4546 H       
  29 H29            3.7329     1.6528    -0.2362 H       
  30 H30            3.6100    -2.6809    -1.3276 H       
  31 H31            3.8160    -3.2012     0.3780 H       
  32 H32            1.4403    -3.0644     4.6386 H       
  33 H33           -0.1366    -4.8918     4.1688 H       
  34 H34           -0.7085    -5.4732     1.8556 H       
  35 H35           -0.4370     4.1336    -0.9840 H       
  36 H36           -0.1861     3.5601     0.6958 H       
  37 H37           -1.4945    -4.6981    -1.1354 H       
  38 H38           -0.0943    -5.3994    -1.9815 H       
  39 H39           -0.5481    -5.9949    -0.3666 H       
  40 H40            4.4067    -2.4661     4.0342 H       
  41 H41            5.4289    -0.0528     4.0326 H       
  42 H42            1.7823     0.2164     1.8852 H       
@<TRIPOS>BOND
   1    1    2 ar
   2    1    6 ar
   3    1   20 1
   4    2    3 ar
   5    2   28 1
   6    3    4 ar
   7    3    8 1
   8    4    5 ar
   9    4    7 1
  10    5    6 ar
  11    5   29 1
  12    6   22 1
  13    7    9 1
  14    8    9 1
  15    8   11 1
  16    8   12 1
  17    9   30 1
  18    9   31 1
  19   10   11 ar
  20   10   13 1
  21   10   18 ar
  22   11   15 ar
  23   12   13 am
  24   12   14 2
  25   13   23 1
  26   15   16 ar
  27   15   19 1
  28   16   17 ar
  29   16   32 1
  30   17   18 ar
  31   17   33 1
  32   18   34 1
  33   19   24 1
  34   19   27 2
  35   20   21 1
  36   21   22 1
  37   21   35 1
  38   21   36 1
  39   23   37 1
  40   23   38 1
  41   23   39 1
  42   24   25 2
  43   24   40 1
  44   25   26 1
  45   25   41 1
  46   26   27 1
  47   27   42 1

#	End of record

