#	Name: ASD01914941
#	Creating user name:	WinNT
#	Creation time:	15. 06. 2019 20:04

#	Modifying user name:	WinNT
#	Modification time:	15. 06. 2019 20:04

#	Program:	/corina/corina34_cracker 3.40 0067  02.08.2006

@<TRIPOS>MOLECULE
ASD01914941
  57   61    0    0    0
SMALL
NO_CHARGES


@<TRIPOS>ATOM
   1 C1             0.0094     1.9129     0.7460 C.2     
   2 N2            -0.0728     0.6202     0.9822 N.2     
   3 C3             1.2830     2.1852     0.2189 C.2     
   4 C4             1.9647     1.0059     0.1468 C.2     
   5 N5             1.1409     0.0253     0.6153 N.pl3   
   6 C6            -1.0623     2.9108     0.9891 C.ar    
   7 C7            -2.2881     2.5066     1.5133 C.ar    
   8 C8            -3.2812     3.4386     1.7373 C.ar    
   9 C9            -3.0611     4.7719     1.4419 C.ar    
  10 C10           -1.8460     5.1787     0.9213 C.ar    
  11 C11           -0.8439     4.2559     0.6992 C.ar    
  12 C12            3.3468     0.8236    -0.3500 C.ar    
  13 C13            1.4679    -1.3991     0.7174 C.3     
  14 C14            1.9845    -1.6980     2.1012 C.2     
  15 N15            2.3504    -2.9535     2.4272 N.am    
  16 O16            2.0710    -0.8088     2.9213 O.2     
  17 C17            2.2579    -4.0540     1.4563 C.3     
  18 C18            1.6996    -5.2678     2.1477 C.2     
  19 N19            1.5919    -5.3639     3.4737 N.am    
  20 C20            1.9086    -4.2930     4.4087 C.3     
  21 C21            2.8649    -3.2777     3.7685 C.3     
  22 C22            4.0971    -0.2802     0.0558 C.ar    
  23 C23            5.3851    -0.4445    -0.4109 C.ar    
  24 C24            5.9327     0.4826    -1.2795 C.ar    
  25 C25            5.1939     1.5796    -1.6854 C.ar    
  26 C26            3.9026     1.7518    -1.2306 C.ar    
  27 C27            1.9410    -7.7117     3.9206 C.ar    
  28 C28            1.1426    -6.5785     4.0036 C.ar    
  29 C29            1.4948    -8.9089     4.4450 C.ar    
  30 C30            0.2543    -8.9801     5.0519 C.ar    
  31 C31           -0.5429    -7.8534     5.1366 C.ar    
  32 C32           -0.1025    -6.6532     4.6141 C.ar    
  33 O33            1.3301    -6.2020     1.4681 O.2     
  34 H34            1.6556     3.1549    -0.0765 H       
  35 H35           -2.4612     1.4657     1.7437 H       
  36 H36           -4.2318     3.1263     2.1437 H       
  37 H37           -3.8411     5.4978     1.6181 H       
  38 H38           -1.6794     6.2209     0.6924 H       
  39 H39            0.1047     4.5746     0.2930 H       
  40 H40            0.5730    -1.9918     0.5277 H       
  41 H41            2.2324    -1.6499    -0.0179 H       
  42 H42            1.5985    -3.7644     0.6381 H       
  43 H43            3.2499    -4.2804     1.0655 H       
  44 H44            0.9881    -3.7874     4.7004 H       
  45 H45            2.3799    -4.7182     5.2949 H       
  46 H46            3.8623    -3.7104     3.6906 H       
  47 H47            2.9020    -2.3736     4.3761 H       
  48 H48            3.6708    -1.0044     0.7342 H       
  49 H49            5.9671    -1.2984    -0.0971 H       
  50 H50            6.9413     0.3496    -1.6420 H       
  51 H51            5.6272     2.3002    -2.3631 H       
  52 H52            3.3267     2.6084    -1.5484 H       
  53 H53            2.9079    -7.6578     3.4425 H       
  54 H54            2.1153    -9.7906     4.3808 H       
  55 H55           -0.0926    -9.9176     5.4606 H       
  56 H56           -1.5114    -7.9123     5.6108 H       
  57 H57           -0.7256    -5.7736     4.6806 H       
@<TRIPOS>BOND
   1    1    2 2
   2    1    3 1
   3    1    6 1
   4    2    5 1
   5    3    4 2
   6    3   34 1
   7    4    5 1
   8    4   12 1
   9    5   13 1
  10    6    7 ar
  11    6   11 ar
  12    7    8 ar
  13    7   35 1
  14    8    9 ar
  15    8   36 1
  16    9   10 ar
  17    9   37 1
  18   10   11 ar
  19   10   38 1
  20   11   39 1
  21   12   22 ar
  22   12   26 ar
  23   13   14 1
  24   13   40 1
  25   13   41 1
  26   14   15 am
  27   14   16 2
  28   15   17 1
  29   15   21 1
  30   17   18 1
  31   17   42 1
  32   17   43 1
  33   18   19 am
  34   18   33 2
  35   19   20 1
  36   19   28 1
  37   20   21 1
  38   20   44 1
  39   20   45 1
  40   21   46 1
  41   21   47 1
  42   22   23 ar
  43   22   48 1
  44   23   24 ar
  45   23   49 1
  46   24   25 ar
  47   24   50 1
  48   25   26 ar
  49   25   51 1
  50   26   52 1
  51   27   28 ar
  52   27   29 ar
  53   27   53 1
  54   28   32 ar
  55   29   30 ar
  56   29   54 1
  57   30   31 ar
  58   30   55 1
  59   31   32 ar
  60   31   56 1
  61   32   57 1

#	End of record

