#	Name: ASD01916119
#	Creating user name:	WinNT
#	Creation time:	15. 06. 2019 20:06

#	Modifying user name:	WinNT
#	Modification time:	15. 06. 2019 20:06

#	Program:	/corina/corina34_cracker 3.40 0067  02.08.2006

@<TRIPOS>MOLECULE
ASD01916119
  39   41    0    0    0
SMALL
NO_CHARGES


@<TRIPOS>ATOM
   1 C1            -0.0170     1.3991     0.0095 C.ar    
   2 C2             0.0021    -0.0041     0.0109 C.ar    
   3 C3            -1.2033    -0.6759     0.0183 C.ar    
   4 C4            -2.3890     0.0534     0.0242 C.ar    
   5 N5            -3.6085    -0.6194     0.0322 N.am    
   6 C6             1.2068     2.1427     0.0014 C.1     
   7 C7             2.2101     2.7523    -0.0053 C.1     
   8 C8             3.4339     3.4959    -0.0134 C.ar    
   9 C9             3.4065     4.8930    -0.0147 C.ar    
  10 C10            4.5892     5.6025    -0.0226 C.ar    
  11 N11           -2.3743     1.3776     0.0227 N.ar    
  12 C12           -1.2474     2.0592     0.0103 C.ar    
  13 C13            4.6613     2.8279    -0.0143 C.ar    
  14 C14            5.8009     4.9341    -0.0297 C.ar    
  15 N15           -3.7216    -1.9744    -0.0668 N.3     
  16 C16           -5.1119    -2.2856    -0.4727 C.3     
  17 C17           -5.8843    -1.0587     0.0698 C.3     
  18 C18           -4.7983    -0.0003     0.1443 C.2     
  19 C19            5.8359     3.5507    -0.0222 C.ar    
  20 O20           -4.9725     1.1929     0.2742 O.2     
  21 C21           -5.2299    -2.3767    -1.9954 C.3     
  22 C22           -5.5995    -3.5756     0.1899 C.3     
  23 F23           -5.5283    -3.4413     1.5806 F       
  24 F24           -6.9239    -3.8220    -0.1876 F       
  25 F25           -4.7921    -4.6430    -0.2174 F       
  26 H26            0.9370    -0.5448     0.0058 H       
  27 H27           -1.2265    -1.7557     0.0192 H       
  28 H28            2.4616     5.4160    -0.0099 H       
  29 H29            4.5697     6.6823    -0.0236 H       
  30 H30           -1.2752     3.1388     0.0096 H       
  31 H31            4.6901     1.7483    -0.0085 H       
  32 H32            6.7239     5.4949    -0.0366 H       
  33 H33           -3.0593    -2.3449    -0.7318 H       
  34 H34           -6.6736    -0.7608    -0.6205 H       
  35 H35           -6.2904    -1.2628     1.0605 H       
  36 H36            6.7853     3.0359    -0.0229 H       
  37 H37           -4.5926    -3.1816    -2.3616 H       
  38 H38           -6.2654    -2.5805    -2.2681 H       
  39 H39           -4.9157    -1.4330    -2.4413 H       
@<TRIPOS>BOND
   1    1    2 ar
   2    1    6 1
   3    1   12 ar
   4    2    3 ar
   5    2   26 1
   6    3    4 ar
   7    3   27 1
   8    4   11 ar
   9    4    5 1
  10    5   15 1
  11    5   18 am
  12    6    7 3
  13    7    8 1
  14    8    9 ar
  15    8   13 ar
  16    9   10 ar
  17    9   28 1
  18   10   14 ar
  19   10   29 1
  20   11   12 ar
  21   12   30 1
  22   13   19 ar
  23   13   31 1
  24   14   19 ar
  25   14   32 1
  26   15   16 1
  27   15   33 1
  28   16   17 1
  29   16   21 1
  30   16   22 1
  31   17   18 1
  32   17   34 1
  33   17   35 1
  34   18   20 2
  35   19   36 1
  36   21   37 1
  37   21   38 1
  38   21   39 1
  39   22   23 1
  40   22   24 1
  41   22   25 1

#	End of record

