#	Name: ASD01230887
#	Creating user name:	WinNT
#	Creation time:	15. 06. 2019 19:15

#	Modifying user name:	WinNT
#	Modification time:	15. 06. 2019 19:15

#	Program:	/corina/corina34_cracker 3.40 0067  02.08.2006

@<TRIPOS>MOLECULE
ASD01230887
  20   21    0    0    0
SMALL
NO_CHARGES


@<TRIPOS>ATOM
   1 C1            -0.0170     1.4003     0.0097 C.ar    
   2 C2             0.0021    -0.0041     0.0020 C.ar    
   3 C3             1.2351    -0.6606    -0.0133 C.ar    
   4 C4             2.3895     0.1063    -0.0201 C.ar    
   5 C5             2.2903     1.4842    -0.0118 C.ar    
   6 N6             1.1145     2.0847     0.0026 N.ar    
   7 N7            -1.2306     2.0738     0.0191 N.pl3   
   8 O8            -2.2906    -0.5903     0.8567 O.3     
   9 C9            -1.2590    -0.7731     0.0104 C.2     
  10 C10           -1.5803    -1.7883    -0.8354 C.2     
  11 C11           -2.8687    -2.2286    -0.4703 C.2     
  12 C12           -3.2656    -1.4688     0.5688 C.2     
  13 H13            1.2875    -1.7393    -0.0192 H       
  14 H14            3.3590    -0.3695    -0.0316 H       
  15 H15            3.1905     2.0808    -0.0172 H       
  16 H16           -2.0623     1.5746     0.0203 H       
  17 H17           -1.2471     3.0436     0.0245 H       
  18 H18           -0.9670    -2.1813    -1.6328 H       
  19 H19           -3.4313    -3.0242    -0.9359 H       
  20 H20           -4.2106    -1.5521     1.0850 H       
@<TRIPOS>BOND
   1    1    2 ar
   2    1    6 ar
   3    1    7 1
   4    2    3 ar
   5    2    9 1
   6    3    4 ar
   7    3   13 1
   8    4    5 ar
   9    4   14 1
  10    5    6 ar
  11    5   15 1
  12    7   16 1
  13    7   17 1
  14    8    9 1
  15    8   12 1
  16    9   10 2
  17   10   11 1
  18   10   18 1
  19   11   12 2
  20   11   19 1
  21   12   20 1

#	End of record

