#	Name: ASD03430135
#	Creating user name:	WinNT
#	Creation time:	15. 06. 2019 20:40

#	Modifying user name:	WinNT
#	Modification time:	15. 06. 2019 20:40

#	Program:	/corina/corina34_cracker 3.40 0067  02.08.2006

@<TRIPOS>MOLECULE
ASD03430135
  65   71    0    0    0
SMALL
NO_CHARGES


@<TRIPOS>ATOM
   1 C1             0.4629     1.1230    -0.5869 C.ar    
   2 C2             0.4301    -0.2473    -0.4515 C.ar    
   3 C3             1.5981    -0.9491    -0.2388 C.ar    
   4 C4             2.8156    -0.2793    -0.1487 C.ar    
   5 C5             2.8412     1.1026    -0.2951 C.ar    
   6 C6             1.6677     1.8126    -0.5187 C.ar    
   7 O7             3.8379    -1.1479     0.0952 O.3     
   8 C8             1.8994    -2.4142    -0.0775 C.3     
   9 C9             3.4226    -2.4815    -0.2563 C.3     
  10 C10            0.5933    -3.9919     0.9816 C.ar    
  11 C11            1.4682    -2.9463     1.2566 C.ar    
  12 C12            1.1830    -3.2585    -1.0925 C.2     
  13 N13            0.4466    -4.1493    -0.3990 N.am    
  14 O14            1.2528    -3.1579    -2.2991 O.2     
  15 C15            1.7671    -2.6044     2.5679 C.ar    
  16 C16            1.1868    -3.3142     3.6194 C.ar    
  17 C17            0.3191    -4.3525     3.3467 C.ar    
  18 C18            0.0215    -4.6919     2.0422 C.ar    
  19 C19            2.7017    -1.4873     2.8509 C.ar    
  20 C20           -0.6282     2.1525    -0.8068 C.3     
  21 C21            0.1006     3.4712    -0.4554 C.3     
  22 O22            1.4793     3.1488    -0.7043 O.3     
  23 C23           -0.4072    -5.1648    -1.0204 C.3     
  24 C24           -1.8122    -4.5944    -1.2243 C.3     
  25 C25           -2.7187    -5.6554    -1.8778 C.3     
  26 C26           -3.8803    -5.8346    -0.8702 C.3     
  27 C27           -3.8104    -4.5173    -0.0564 C.3     
  28 O28           -2.3934    -4.2602     0.0472 O.3     
  29 N29            3.2467     0.7951     2.6501 N.ar    
  30 C30            2.4198    -0.2004     2.4013 C.ar    
  31 C31            4.3685     0.6158     3.3314 C.ar    
  32 N32            5.2073     1.6976     3.5681 N.pl3   
  33 C33            6.5011     1.4916     4.2238 C.3     
  34 C34            3.8758    -1.7119     3.5784 C.ar    
  35 C35            4.7150    -0.6416     3.8177 C.ar    
  36 C36            4.7981     3.0444     3.1620 C.3     
  37 H37           -0.5115    -0.7728    -0.5117 H       
  38 H38            3.7820     1.6296    -0.2345 H       
  39 H39            3.6812    -2.7073    -1.2908 H       
  40 H40            3.8599    -3.2144     0.4218 H       
  41 H41            1.4156    -3.0527     4.6420 H       
  42 H42           -0.1305    -4.9030     4.1598 H       
  43 H43           -0.6595    -5.5059     1.8420 H       
  44 H44           -0.9580     2.1546    -1.8457 H       
  45 H45           -1.4678     1.9801    -0.1335 H       
  46 H46           -0.2303     4.2805    -1.1062 H       
  47 H47           -0.0525     3.7296     0.5924 H       
  48 H48            0.0121    -5.4514    -1.9848 H       
  49 H49           -0.4609    -6.0400    -0.3729 H       
  50 H50           -1.7639    -3.7079    -1.8567 H       
  51 H51           -3.0963    -5.2972    -2.8355 H       
  52 H52           -2.1774    -6.5927    -2.0065 H       
  53 H53           -4.8352    -5.9212    -1.3887 H       
  54 H54           -3.7083    -6.6982    -0.2278 H       
  55 H55           -4.3090    -3.7089    -0.5912 H       
  56 H56           -4.2491    -4.6530     0.9321 H       
  57 H57            1.5141    -0.0160     1.8426 H       
  58 H58            7.2640     1.2984     3.4697 H       
  59 H59            6.7676     2.3841     4.7900 H       
  60 H60            6.4342     0.6391     4.8997 H       
  61 H61            4.1195    -2.6984     3.9442 H       
  62 H62            5.6297    -0.7786     4.3754 H       
  63 H63            3.8144     2.9998     2.6946 H       
  64 H64            4.7549     3.6908     4.0386 H       
  65 H65            5.5205     3.4446     2.4507 H       
@<TRIPOS>BOND
   1    1    2 ar
   2    1    6 ar
   3    1   20 1
   4    2    3 ar
   5    2   37 1
   6    3    4 ar
   7    3    8 1
   8    4    5 ar
   9    4    7 1
  10    5    6 ar
  11    5   38 1
  12    6   22 1
  13    7    9 1
  14    8    9 1
  15    8   11 1
  16    8   12 1
  17    9   39 1
  18    9   40 1
  19   10   11 ar
  20   10   13 1
  21   10   18 ar
  22   11   15 ar
  23   12   13 am
  24   12   14 2
  25   13   23 1
  26   15   16 ar
  27   15   19 1
  28   16   17 ar
  29   16   41 1
  30   17   18 ar
  31   17   42 1
  32   18   43 1
  33   19   34 ar
  34   19   30 ar
  35   20   21 1
  36   20   44 1
  37   20   45 1
  38   21   22 1
  39   21   46 1
  40   21   47 1
  41   23   24 1
  42   23   48 1
  43   23   49 1
  44   24   25 1
  45   24   28 1
  46   24   50 1
  47   25   26 1
  48   25   51 1
  49   25   52 1
  50   26   27 1
  51   26   53 1
  52   26   54 1
  53   27   28 1
  54   27   55 1
  55   27   56 1
  56   29   30 ar
  57   29   31 ar
  58   30   57 1
  59   31   32 1
  60   31   35 ar
  61   32   33 1
  62   32   36 1
  63   33   58 1
  64   33   59 1
  65   33   60 1
  66   34   35 ar
  67   34   61 1
  68   35   62 1
  69   36   63 1
  70   36   64 1
  71   36   65 1

#	End of record

