#	Name: ASD01120191
#	Creating user name:	WinNT
#	Creation time:	15. 06. 2019 18:59

#	Modifying user name:	WinNT
#	Modification time:	15. 06. 2019 18:59

#	Program:	/corina/corina34_cracker 3.40 0067  02.08.2006

@<TRIPOS>MOLECULE
ASD01120191
  39   42    0    0    0
SMALL
NO_CHARGES


@<TRIPOS>ATOM
   1 C1            -6.7059    -3.4800    -4.4684 C.ar    
   2 C2            -8.0175    -3.8553    -4.2179 C.ar    
   3 C3            -8.7742    -3.1739    -3.2856 C.ar    
   4 C4            -8.2227    -2.1084    -2.5938 C.ar    
   5 C5            -6.8961    -1.7252    -2.8433 C.ar    
   6 C6            -6.1399    -2.4248    -3.7841 C.ar    
   7 O7            -8.6918    -1.2647    -1.6454 O.3     
   8 C8            -7.7087    -0.4053    -1.3248 C.2     
   9 N9            -6.6364    -0.6663    -2.0279 N.2     
  10 Cl10          -5.7693    -4.3478    -5.6446 Cl      
  11 N11           -7.8148     0.6022    -0.3929 N.am    
  12 S12           -6.4899     1.5190    -0.0103 S.o2    
  13 O13           -6.9272     2.4780     0.9428 O.2     
  14 O14           -5.4283     0.6070     0.2357 O.2     
  15 C15           -6.0451     2.4220    -1.4565 C.ar    
  16 C16           -4.8019     3.0458    -1.5349 C.ar    
  17 C17           -4.4567     3.7584    -2.6817 C.ar    
  18 C18           -5.3469     3.8424    -3.7328 C.ar    
  19 C19           -6.5803     3.2214    -3.6494 C.ar    
  20 C20           -6.9256     2.5078    -2.5162 C.ar    
  21 C21           -4.2378     3.3571     0.8741 C.ar    
  22 C22           -3.3476     3.2676     1.9250 C.ar    
  23 C23           -2.0714     2.7775     1.7139 C.ar    
  24 C24           -1.6802     2.3743     0.4499 C.ar    
  25 C25           -2.5624     2.4591    -0.6081 C.ar    
  26 C26           -3.8490     2.9524    -0.4013 C.ar    
  27 H27           -8.4498    -4.6858    -4.7561 H       
  28 H28           -9.7951    -3.4712    -3.0962 H       
  29 H29           -5.1181    -2.1362    -3.9814 H       
  30 H30           -8.6656     0.7752     0.0396 H       
  31 H31           -3.4944     4.2442    -2.7476 H       
  32 H32           -5.0804     4.3944    -4.6221 H       
  33 H33           -7.2741     3.2900    -4.4742 H       
  34 H34           -7.8898     2.0248    -2.4563 H       
  35 H35           -5.2353     3.7361     1.0409 H       
  36 H36           -3.6478     3.5810     2.9140 H       
  37 H37           -1.3778     2.7098     2.5389 H       
  38 H38           -0.6825     1.9928     0.2905 H       
  39 H39           -2.2558     2.1443    -1.5947 H       
@<TRIPOS>BOND
   1    1    2 ar
   2    1   10 1
   3    1    6 ar
   4    2    3 ar
   5    2   27 1
   6    3    4 ar
   7    3   28 1
   8    4    5 ar
   9    4    7 1
  10    5    6 ar
  11    5    9 1
  12    6   29 1
  13    7    8 1
  14    8    9 2
  15    8   11 1
  16   11   12 am
  17   11   30 1
  18   12   13 2
  19   12   14 2
  20   12   15 1
  21   15   16 ar
  22   15   20 ar
  23   16   17 ar
  24   16   26 1
  25   17   18 ar
  26   17   31 1
  27   18   19 ar
  28   18   32 1
  29   19   20 ar
  30   19   33 1
  31   20   34 1
  32   21   22 ar
  33   21   26 ar
  34   21   35 1
  35   22   23 ar
  36   22   36 1
  37   23   24 ar
  38   23   37 1
  39   24   25 ar
  40   24   38 1
  41   25   26 ar
  42   25   39 1

#	End of record

