#	Name: ASD04882454
#	Creating user name:	WinNT
#	Creation time:	15. 06. 2019 20:54

#	Modifying user name:	WinNT
#	Modification time:	15. 06. 2019 20:54

#	Program:	/corina/corina34_cracker 3.40 0067  02.08.2006

@<TRIPOS>MOLECULE
ASD04882454
  81   86    0    0    0
SMALL
NO_CHARGES


@<TRIPOS>ATOM
   1 C1            -0.0215     1.4013    -0.0093 C.ar    
   2 C2            -0.0116     0.0037    -0.0052 C.ar    
   3 C3            -1.2095    -0.7018    -0.0165 C.ar    
   4 C4            -2.4097    -0.0267    -0.0324 C.ar    
   5 C5            -2.4268     1.3709    -0.0366 C.ar    
   6 C6            -1.2240     2.0827    -0.0190 C.ar    
   7 N7             1.1997    -0.6831     0.0099 N.3     
   8 C8             1.3066    -1.5361     1.2018 C.3     
   9 C9             1.3724    -1.4733    -1.2170 C.3     
  10 C10            2.7462    -2.1476    -1.1972 C.3     
  11 N11            2.8531    -3.0006    -0.0053 N.3     
  12 C12            2.6805    -2.2104     1.2216 C.3     
  13 C13           -3.7127     2.0939    -0.0536 C.2     
  14 O14           -3.7266     3.3098    -0.0573 O.2     
  15 N15           -4.8720     1.4067    -0.0650 N.am    
  16 N16            1.1863     2.1109     0.0021 N.am    
  17 C17            1.2294     3.3599     0.5068 C.2     
  18 C18            2.5092     4.0695     0.5995 C.2     
  19 O19            3.7101     3.5923     0.2121 O.3     
  20 C20            4.0681    -3.6895     0.0098 C.ar    
  21 O21            0.2059     3.8988     0.8856 O.2     
  22 C22            2.6935     5.3315     1.0876 C.2     
  23 C23            4.0664     5.6062     0.9879 C.2     
  24 C24            4.6520     4.5153     0.4466 C.2     
  25 C25            4.0808    -5.0783     0.0140 C.ar    
  26 C26            5.2841    -5.7563     0.0285 C.ar    
  27 C27            6.4751    -5.0541     0.0393 C.ar    
  28 C28            6.4660    -3.6710     0.0352 C.ar    
  29 C29            5.2667    -2.9869     0.0149 C.ar    
  30 C30            6.1226     4.3621     0.1553 C.3     
  31 C31            6.8661     3.2218     0.8537 C.3     
  32 C32            6.5604     3.1324    -0.6428 C.3     
  33 C33            2.7832    -5.8446     0.0032 C.3     
  34 C34           -6.1490     2.1246    -0.0818 C.3     
  35 C35           -7.3004     1.1171    -0.0922 C.3     
  36 C36           -8.6339     1.8669    -0.1098 C.3     
  37 N37           -9.7364     0.9022    -0.1198 N.am    
  38 C38          -10.3736     0.3604     1.0862 C.3     
  39 C39          -11.1409    -0.8959     0.6180 C.3     
  40 C40          -11.3955    -0.5726    -0.8725 C.3     
  41 C41          -10.2982     0.4039    -1.2347 C.2     
  42 O42           -9.9684     0.6899    -2.3662 O.2     
  43 H43           -1.1988    -1.7817    -0.0133 H       
  44 H44           -3.3386    -0.5776    -0.0419 H       
  45 H45           -1.2341     3.1626    -0.0222 H       
  46 H46            1.1879    -0.9262     2.0973 H       
  47 H47            0.5278    -2.2982     1.1746 H       
  48 H48            0.5943    -2.2347    -1.2716 H       
  49 H49            1.3016    -0.8176    -2.0848 H       
  50 H50            2.8649    -2.7575    -2.0927 H       
  51 H51            3.5250    -1.3855    -1.1700 H       
  52 H52            3.4585    -1.4490     1.2763 H       
  53 H53            2.7512    -2.8660     2.0895 H       
  54 H54           -4.8609     0.4367    -0.0621 H       
  55 H55            1.9917     1.7034    -0.3533 H       
  56 H56            1.9307     5.9907     1.4748 H       
  57 H57            4.5612     6.5192     1.2846 H       
  58 H58            5.2947    -6.8363     0.0318 H       
  59 H59            7.4145    -5.5867     0.0514 H       
  60 H60            7.3981    -3.1255     0.0440 H       
  61 H61            5.2604    -1.9070     0.0114 H       
  62 H62            6.6681     5.2910    -0.0113 H       
  63 H63            7.9009     3.4004     1.1462 H       
  64 H64            6.2916     2.5824     1.5239 H       
  65 H65            5.7847     2.4341    -0.9571 H       
  66 H66            7.3940     3.2521    -1.3348 H       
  67 H67            2.4807    -6.0323    -1.0270 H       
  68 H68            2.9177    -6.7942     0.5212 H       
  69 H69            2.0127    -5.2615     0.5077 H       
  70 H70           -6.2241     2.7531     0.8055 H       
  71 H71           -6.2036     2.7480    -0.9743 H       
  72 H72           -7.2252     0.4886    -0.9796 H       
  73 H73           -7.2458     0.4937     0.8003 H       
  74 H74           -8.7091     2.4954     0.7775 H       
  75 H75           -8.6886     2.4902    -1.0023 H       
  76 H76           -9.6174     0.0879     1.8224 H       
  77 H77          -11.0655     1.0898     1.5074 H       
  78 H78          -10.5267    -1.7902     0.7237 H       
  79 H79          -12.0806    -1.0036     1.1598 H       
  80 H80          -11.3205    -1.4764    -1.4772 H       
  81 H81          -12.3727    -0.1070    -1.0004 H       
@<TRIPOS>BOND
   1    1    2 ar
   2    1   16 1
   3    1    6 ar
   4    2    3 ar
   5    2    7 1
   6    3    4 ar
   7    3   43 1
   8    4    5 ar
   9    4   44 1
  10    5    6 ar
  11    5   13 1
  12    6   45 1
  13    7    8 1
  14    7    9 1
  15    8   12 1
  16    8   46 1
  17    8   47 1
  18    9   10 1
  19    9   48 1
  20    9   49 1
  21   10   11 1
  22   10   50 1
  23   10   51 1
  24   11   12 1
  25   11   20 1
  26   12   52 1
  27   12   53 1
  28   13   14 2
  29   13   15 am
  30   15   34 1
  31   15   54 1
  32   16   17 am
  33   16   55 1
  34   17   18 1
  35   17   21 2
  36   18   22 2
  37   18   19 1
  38   19   24 1
  39   20   25 ar
  40   20   29 ar
  41   22   23 1
  42   22   56 1
  43   23   24 2
  44   23   57 1
  45   24   30 1
  46   25   26 ar
  47   25   33 1
  48   26   27 ar
  49   26   58 1
  50   27   28 ar
  51   27   59 1
  52   28   29 ar
  53   28   60 1
  54   29   61 1
  55   30   31 1
  56   30   32 1
  57   30   62 1
  58   31   32 1
  59   31   63 1
  60   31   64 1
  61   32   65 1
  62   32   66 1
  63   33   67 1
  64   33   68 1
  65   33   69 1
  66   34   35 1
  67   34   70 1
  68   34   71 1
  69   35   36 1
  70   35   72 1
  71   35   73 1
  72   36   37 1
  73   36   74 1
  74   36   75 1
  75   37   38 1
  76   37   41 am
  77   38   39 1
  78   38   76 1
  79   38   77 1
  80   39   40 1
  81   39   78 1
  82   39   79 1
  83   40   41 1
  84   40   80 1
  85   40   81 1
  86   41   42 2

#	End of record

