#	Name: ASD03330863
#	Creating user name:	WinNT
#	Creation time:	15. 06. 2019 20:38

#	Modifying user name:	WinNT
#	Modification time:	15. 06. 2019 20:38

#	Program:	/corina/corina34_cracker 3.40 0067  02.08.2006

@<TRIPOS>MOLECULE
ASD03330863
  61   63    0    0    0
SMALL
NO_CHARGES


@<TRIPOS>ATOM
   1 N1             0.1368     0.9678    -0.0503 N.pl3   
   2 C2             0.0165    -0.3680     0.1770 C.2     
   3 C3             1.1369    -1.2959     0.5682 C.3     
   4 N4             1.9098    -0.6848     1.6608 N.3     
   5 C5             2.9873     0.1590     1.1407 C.3     
   6 C6             2.5720     0.8325    -0.1641 C.3     
   7 C7             1.3702     1.7480     0.0846 C.3     
   8 C8            -1.0945     1.4336    -0.4101 C.2     
   9 N9            -1.9436     0.4325    -0.3886 N.2     
  10 C10           -1.2894    -0.6936    -0.0271 C.2     
  11 C11           -1.8835    -2.0339     0.1203 C.2     
  12 O12           -1.1877    -2.9742     0.4534 O.2     
  13 N13           -3.1979    -2.2178    -0.1141 N.am    
  14 C14            2.4370    -1.7107     2.5705 C.3     
  15 C15           -1.4180     2.8315    -0.7647 C.ar    
  16 C16           -2.1930     3.1083    -1.8980 C.ar    
  17 C17           -2.4918     4.4209    -2.2226 C.ar    
  18 C18           -2.0254     5.4549    -1.4289 C.ar    
  19 C19           -1.2580     5.1836    -0.3065 C.ar    
  20 C20           -0.9576     3.8807     0.0311 C.ar    
  21 O21           -2.6495     2.0932    -2.6759 O.3     
  22 F22           -2.3190     6.7340    -1.7497 F       
  23 C23           -5.0224    -3.6503    -0.8272 C.2     
  24 C24           -3.7886    -3.5504     0.0324 C.3     
  25 C25           -4.1671    -3.7823     1.4966 C.3     
  26 C26           -5.2314    -2.7661     1.9154 C.3     
  27 O27           -5.6547    -2.6516    -1.0987 O.2     
  28 N28           -5.4230    -4.8493    -1.2942 N.am    
  29 C29           -6.6799    -4.9629    -2.0382 C.3     
  30 C30           -4.7214    -5.1988     1.6619 C.3     
  31 C31           -2.9269    -3.6140     2.3768 C.3     
  32 H32            0.7223    -2.2469     0.9028 H       
  33 H33            1.7881    -1.4629    -0.2897 H       
  34 H34            3.2299     0.9248     1.8775 H       
  35 H35            3.8690    -0.4561     0.9613 H       
  36 H36            3.4039     1.4230    -0.5480 H       
  37 H37            2.3018     0.0706    -0.8952 H       
  38 H38            1.3712     2.5573    -0.6456 H       
  39 H39            1.4305     2.1633     1.0906 H       
  40 H40           -3.7528    -1.4679    -0.3798 H       
  41 H41            3.0319    -2.4274     2.0043 H       
  42 H42            3.0620    -1.2379     3.3282 H       
  43 H43            1.6084    -2.2280     3.0541 H       
  44 H44           -3.0889     4.6382    -3.0960 H       
  45 H45           -0.8973     5.9954     0.3078 H       
  46 H46           -0.3633     3.6729     0.9086 H       
  47 H47           -3.5151     1.7532    -2.4109 H       
  48 H48           -3.0662    -4.3044    -0.2799 H       
  49 H49           -6.1149    -2.8860     1.2884 H       
  50 H50           -5.5010    -2.9313     2.9585 H       
  51 H51           -4.8365    -1.7570     1.7977 H       
  52 H52           -4.8792    -5.6372    -1.1378 H       
  53 H53           -6.8354    -6.0008    -2.3327 H       
  54 H54           -7.5065    -4.6366    -1.4071 H       
  55 H55           -6.6331    -4.3358    -2.9285 H       
  56 H56           -3.9421    -5.9236     1.4264 H       
  57 H57           -5.0517    -5.3419     2.6908 H       
  58 H58           -5.5651    -5.3399     0.9864 H       
  59 H59           -2.5321    -2.6049     2.2590 H       
  60 H60           -3.1966    -3.7792     3.4199 H       
  61 H61           -2.1687    -4.3380     2.0784 H       
@<TRIPOS>BOND
   1    1    2 1
   2    1    7 1
   3    1    8 1
   4    2    3 1
   5    2   10 2
   6    3    4 1
   7    3   32 1
   8    3   33 1
   9    4    5 1
  10    4   14 1
  11    5    6 1
  12    5   34 1
  13    5   35 1
  14    6    7 1
  15    6   36 1
  16    6   37 1
  17    7   38 1
  18    7   39 1
  19    8    9 2
  20    8   15 1
  21    9   10 1
  22   10   11 1
  23   11   12 2
  24   11   13 am
  25   13   24 1
  26   13   40 1
  27   14   41 1
  28   14   42 1
  29   14   43 1
  30   15   16 ar
  31   15   20 ar
  32   16   17 ar
  33   16   21 1
  34   17   18 ar
  35   17   44 1
  36   18   19 ar
  37   18   22 1
  38   19   20 ar
  39   19   45 1
  40   20   46 1
  41   21   47 1
  42   23   27 2
  43   23   28 am
  44   23   24 1
  45   24   25 1
  46   24   48 1
  47   25   26 1
  48   25   30 1
  49   25   31 1
  50   26   49 1
  51   26   50 1
  52   26   51 1
  53   28   29 1
  54   28   52 1
  55   29   53 1
  56   29   54 1
  57   29   55 1
  58   30   56 1
  59   30   57 1
  60   30   58 1
  61   31   59 1
  62   31   60 1
  63   31   61 1

#	End of record

