#	Name: ASD03081287
#	Creating user name:	WinNT
#	Creation time:	15. 06. 2019 20:27

#	Modifying user name:	WinNT
#	Modification time:	15. 06. 2019 20:27

#	Program:	/corina/corina34_cracker 3.40 0067  02.08.2006

@<TRIPOS>MOLECULE
ASD03081287
  26   28    0    0    0
SMALL
NO_CHARGES


@<TRIPOS>ATOM
   1 O1            -0.0162     1.3444     0.0094 O.3     
   2 C2             0.0021    -0.0041     0.0020 C.2     
   3 N3             1.2609    -0.3804    -0.0120 N.2     
   4 N4             2.0178     0.6599    -0.0137 N.2     
   5 C5             1.2727     1.7416    -0.0007 C.2     
   6 C6             0.8550     4.2023     0.0156 C.ar    
   7 C7             1.7575     3.1373     0.0017 C.ar    
   8 C8             3.1299     3.4142    -0.0094 C.ar    
   9 C9             3.5317     4.7385    -0.0061 C.ar    
  10 C10            2.5743     5.7366     0.0079 C.ar    
  11 N11            1.2872     5.4461     0.0186 N.ar    
  12 C12           -1.1765    -0.8944     0.0089 C.ar    
  13 C13           -1.0078    -2.2805    -0.0002 C.ar    
  14 C14           -2.1116    -3.1069     0.0068 C.ar    
  15 C15           -3.3868    -2.5640     0.0228 C.ar    
  16 C16           -3.5602    -1.1889     0.0315 C.ar    
  17 C17           -2.4636    -0.3531     0.0304 C.ar    
  18 F18           -4.4648    -3.3783     0.0296 F       
  19 H19           -0.2067     4.0045     0.0197 H       
  20 H20            3.8562     2.6150    -0.0199 H       
  21 H21            4.5820     4.9900    -0.0140 H       
  22 H22            2.8853     6.7708     0.0105 H       
  23 H23           -0.0146    -2.7045    -0.0130 H       
  24 H24           -1.9822    -4.1791    -0.0006 H       
  25 H25           -4.5562    -0.7713     0.0436 H       
  26 H26           -2.5998     0.7183     0.0417 H       
@<TRIPOS>BOND
   1    1    2 1
   2    1    5 1
   3    2    3 2
   4    2   12 1
   5    3    4 1
   6    4    5 2
   7    5    7 1
   8    6    7 ar
   9    6   11 ar
  10    6   19 1
  11    7    8 ar
  12    8    9 ar
  13    8   20 1
  14    9   10 ar
  15    9   21 1
  16   10   11 ar
  17   10   22 1
  18   12   13 ar
  19   12   17 ar
  20   13   14 ar
  21   13   23 1
  22   14   15 ar
  23   14   24 1
  24   15   16 ar
  25   15   18 1
  26   16   17 ar
  27   16   25 1
  28   17   26 1

#	End of record

