#	Name: ASD01140249
#	Creating user name:	WinNT
#	Creation time:	15. 06. 2019 19:00

#	Modifying user name:	WinNT
#	Modification time:	15. 06. 2019 19:00

#	Program:	/corina/corina34_cracker 3.40 0067  02.08.2006

@<TRIPOS>MOLECULE
ASD01140249
  36   39    0    0    0
SMALL
NO_CHARGES


@<TRIPOS>ATOM
   1 C1            -0.1789     1.8246    -0.4846 C.3     
   2 C2            -0.6245    -5.3453    -1.2302 C.ar    
   3 C3            -0.0836    -5.5317    -2.4918 C.ar    
   4 C4             0.5548    -4.4941    -3.1329 C.ar    
   5 C5             0.6650    -3.2364    -2.5199 C.ar    
   6 C6             0.0961    -3.0514    -1.2582 C.ar    
   7 C7            -0.5348    -4.1123    -0.6178 C.ar    
   8 C8             1.4052    -2.1885    -3.2302 C.2     
   9 N9             1.1076    -0.9403    -3.3327 N.2     
  10 C10           -0.1060    -0.3812    -2.7260 C.3     
  11 C11           -0.0138    -0.5960    -1.2374 C.2     
  12 N12            0.1097    -1.8083    -0.6194 N.pl3   
  13 C13            0.2075    -1.5700     0.7125 C.2     
  14 C14           -0.0310     0.3396    -0.2749 C.2     
  15 N15            0.1070    -0.2817     0.9084 N.2     
  16 C16            2.6470    -2.6197    -3.9135 C.ar    
  17 C17            3.1351    -1.8958    -5.0012 C.ar    
  18 C18            3.3357    -3.7477    -3.4681 C.ar    
  19 C19            4.4920    -4.1440    -4.1083 C.ar    
  20 C20            4.9685    -3.4247    -5.1897 C.ar    
  21 C21            4.2924    -2.3021    -5.6332 C.ar    
  22 Br22          -0.2222    -7.2180    -3.3363 Br      
  23 H23            0.8065     2.2744    -0.6056 H       
  24 H24           -0.7742     2.0077    -1.3791 H       
  25 H25           -0.6761     2.2657     0.3793 H       
  26 H26           -1.1198    -6.1633    -0.7282 H       
  27 H27            0.9740    -4.6491    -4.1161 H       
  28 H28           -0.9578    -3.9700     0.3656 H       
  29 H29           -0.1698     0.6852    -2.9423 H       
  30 H30           -0.9849    -0.8921    -3.1194 H       
  31 H31            0.3446    -2.3174     1.4800 H       
  32 H32            2.6081    -1.0194    -5.3483 H       
  33 H33            2.9650    -4.3096    -2.6235 H       
  34 H34            5.0262    -5.0173    -3.7643 H       
  35 H35            5.8744    -3.7384    -5.6872 H       
  36 H36            4.6691    -1.7448    -6.4782 H       
@<TRIPOS>BOND
   1    1   14 1
   2    1   23 1
   3    1   24 1
   4    1   25 1
   5    2    3 ar
   6    2    7 ar
   7    2   26 1
   8    3    4 ar
   9    3   22 1
  10    4    5 ar
  11    4   27 1
  12    5    6 ar
  13    5    8 1
  14    6    7 ar
  15    6   12 1
  16    7   28 1
  17    8    9 2
  18    8   16 1
  19    9   10 1
  20   10   11 1
  21   10   29 1
  22   10   30 1
  23   11   12 1
  24   11   14 2
  25   12   13 1
  26   13   15 2
  27   13   31 1
  28   14   15 1
  29   16   17 ar
  30   16   18 ar
  31   17   21 ar
  32   17   32 1
  33   18   19 ar
  34   18   33 1
  35   19   20 ar
  36   19   34 1
  37   20   21 ar
  38   20   35 1
  39   21   36 1

#	End of record

