#	Name: ASD02500871
#	Creating user name:	WinNT
#	Creation time:	15. 06. 2019 20:23

#	Modifying user name:	WinNT
#	Modification time:	15. 06. 2019 20:23

#	Program:	/corina/corina34_cracker 3.40 0067  02.08.2006

@<TRIPOS>MOLECULE
ASD02500871
  52   55    0    0    0
SMALL
NO_CHARGES


@<TRIPOS>ATOM
   1 C1             0.2018     0.3054     0.0751 C.ar    
   2 C2            -0.0192    -1.0498    -0.0237 C.ar    
   3 C3            -1.3280    -1.5394    -0.0525 C.ar    
   4 C4            -2.4050    -0.6405     0.0198 C.ar    
   5 C5            -2.1645     0.7231     0.1191 C.ar    
   6 C6            -0.8674     1.1904     0.1522 C.ar    
   7 N7            -1.8583    -2.7865    -0.1409 N.2     
   8 C8            -3.1571    -2.7115    -0.1276 C.2     
   9 N9            -3.5493    -1.4124    -0.0300 N.pl3   
  10 Cl10           1.8275     0.9131     0.1109 Cl      
  11 Cl11          -0.5680     2.8959     0.2769 Cl      
  12 C12           -4.0909    -3.8914    -0.2094 C.3     
  13 C13           -4.9294    -0.9231     0.0146 C.3     
  14 C14           -5.3939    -0.8597     1.4468 C.2     
  15 N15           -6.6408    -0.4352     1.7327 N.am    
  16 N16           -4.3859    -4.3753     1.1415 N.am    
  17 C17           -5.2056    -5.4309     1.3152 C.2     
  18 C18           -5.5032    -5.9193     2.6786 C.ar    
  19 O19           -5.7002    -5.9815     0.3510 O.2     
  20 C20           -6.3518    -7.0123     2.8619 C.ar    
  21 C21           -6.6254    -7.4629     4.1368 C.ar    
  22 C22           -6.0608    -6.8340     5.2322 C.ar    
  23 C23           -5.2192    -5.7497     5.0574 C.ar    
  24 C24           -4.9324    -5.2930     3.7876 C.ar    
  25 O25           -4.6458    -1.1907     2.3422 O.2     
  26 C26           -7.1058    -0.4683     3.0520 C.ar    
  27 C27           -6.2364    -0.2069     4.1031 C.ar    
  28 C28           -8.4387    -0.7570     3.3128 C.ar    
  29 C29           -8.8946    -0.7890     4.6163 C.ar    
  30 C30           -8.0255    -0.5335     5.6607 C.ar    
  31 C31           -6.6984    -0.2404     5.4040 C.ar    
  32 C32           -5.7544     0.0370     6.5455 C.3     
  33 H33            0.8160    -1.7323    -0.0791 H       
  34 H34           -2.9911     1.4159     0.1745 H       
  35 H35           -5.0174    -3.5884    -0.6971 H       
  36 H36           -3.6205    -4.6879    -0.7860 H       
  37 H37           -4.9764     0.0724    -0.4270 H       
  38 H38           -5.5733    -1.6003    -0.5466 H       
  39 H39           -7.2157    -0.1067     1.0239 H       
  40 H40           -3.9912    -3.9360     1.9110 H       
  41 H41           -6.7934    -7.5038     2.0077 H       
  42 H42           -7.2821    -8.3083     4.2801 H       
  43 H43           -6.2783    -7.1907     6.2282 H       
  44 H44           -4.7820    -5.2630     5.9167 H       
  45 H45           -4.2751    -4.4468     3.6525 H       
  46 H46           -5.2000     0.0220     3.9033 H       
  47 H47           -9.1183    -0.9560     2.4973 H       
  48 H48           -9.9313    -1.0135     4.8198 H       
  49 H49           -8.3845    -0.5587     6.6790 H       
  50 H50           -5.2959    -0.8962     6.8727 H       
  51 H51           -4.9780     0.7271     6.2153 H       
  52 H52           -6.3065     0.4806     7.3740 H       
@<TRIPOS>BOND
   1    1    2 ar
   2    1   10 1
   3    1    6 ar
   4    2    3 ar
   5    2   33 1
   6    3    4 ar
   7    3    7 1
   8    4    5 ar
   9    4    9 1
  10    5    6 ar
  11    5   34 1
  12    6   11 1
  13    7    8 2
  14    8    9 1
  15    8   12 1
  16    9   13 1
  17   12   16 1
  18   12   35 1
  19   12   36 1
  20   13   14 1
  21   13   37 1
  22   13   38 1
  23   14   15 am
  24   14   25 2
  25   15   26 1
  26   15   39 1
  27   16   17 am
  28   16   40 1
  29   17   18 1
  30   17   19 2
  31   18   20 ar
  32   18   24 ar
  33   20   21 ar
  34   20   41 1
  35   21   22 ar
  36   21   42 1
  37   22   23 ar
  38   22   43 1
  39   23   24 ar
  40   23   44 1
  41   24   45 1
  42   26   27 ar
  43   26   28 ar
  44   27   31 ar
  45   27   46 1
  46   28   29 ar
  47   28   47 1
  48   29   30 ar
  49   29   48 1
  50   30   31 ar
  51   30   49 1
  52   31   32 1
  53   32   50 1
  54   32   51 1
  55   32   52 1

#	End of record

