#	Name: ASD01903177
#	Creating user name:	WinNT
#	Creation time:	15. 06. 2019 19:54

#	Modifying user name:	WinNT
#	Modification time:	15. 06. 2019 19:54

#	Program:	/corina/corina34_cracker 3.40 0067  02.08.2006

@<TRIPOS>MOLECULE
ASD01903177
  30   32    0    0    0
SMALL
NO_CHARGES


@<TRIPOS>ATOM
   1 S1            -0.0218     1.7569     0.0117 S.3     
   2 C2             0.0021    -0.0041     0.0020 C.2     
   3 N3             1.2323    -0.4171    -0.0119 N.2     
   4 C4             2.1780     0.5114    -0.0160 C.2     
   5 C5             1.7401     1.7811    -0.0050 C.2     
   6 N6            -1.1187    -0.8217     0.0087 N.pl3   
   7 C7            -2.3856    -0.2605     0.0238 C.ar    
   8 N8            -2.5223     1.0559     0.0317 N.ar    
   9 C9            -3.7092     1.6310     0.0461 C.ar    
  10 C10           -4.8701     0.8791     0.0535 C.ar    
  11 C11           -4.7874    -0.5026     0.0458 C.ar    
  12 C12           -3.5187    -1.0924     0.0248 C.ar    
  13 C13            3.6240     0.1710    -0.0312 C.2     
  14 C14            4.6409     0.8902    -0.6878 C.2     
  15 N15            5.7763     0.2807    -0.4691 N.2     
  16 N16            5.5311    -0.8429     0.3296 N.pl3   
  17 C17            4.2080    -0.8914     0.5933 C.2     
  18 C18           -3.3771    -2.5174     0.0160 C.1     
  19 N19           -3.2648    -3.6478     0.0090 N.1     
  20 C20            2.6065     3.0141    -0.0074 C.3     
  21 H21           -1.0155    -1.7862     0.0029 H       
  22 H22           -3.7759     2.7089     0.0525 H       
  23 H23           -5.8338     1.3664     0.0656 H       
  24 H24           -5.6802    -1.1103     0.0517 H       
  25 H25            4.5061     1.7890    -1.2712 H       
  26 H26            6.1971    -1.4747     0.6427 H       
  27 H27            3.7026    -1.6401     1.1852 H       
  28 H28            2.8049     3.3167    -1.0356 H       
  29 H29            2.0924     3.8204     0.5158 H       
  30 H30            3.5487     2.7972     0.4958 H       
@<TRIPOS>BOND
   1    1    2 1
   2    1    5 1
   3    2    3 2
   4    2    6 1
   5    3    4 1
   6    4    5 2
   7    4   13 1
   8    5   20 1
   9    6    7 1
  10    6   21 1
  11    7    8 ar
  12    7   12 ar
  13    8    9 ar
  14    9   10 ar
  15    9   22 1
  16   10   11 ar
  17   10   23 1
  18   11   12 ar
  19   11   24 1
  20   12   18 1
  21   13   14 1
  22   13   17 2
  23   14   15 2
  24   14   25 1
  25   15   16 1
  26   16   17 1
  27   16   26 1
  28   17   27 1
  29   18   19 3
  30   20   28 1
  31   20   29 1
  32   20   30 1

#	End of record

