#	Name: ASD01900807
#	Creating user name:	WinNT
#	Creation time:	15. 06. 2019 19:52

#	Modifying user name:	WinNT
#	Modification time:	15. 06. 2019 19:52

#	Program:	/corina/corina34_cracker 3.40 0067  02.08.2006

@<TRIPOS>MOLECULE
ASD01900807
  41   44    0    0    0
SMALL
NO_CHARGES


@<TRIPOS>ATOM
   1 N1             0.6450     1.5994     0.5382 N.am    
   2 C2             1.0323     0.2789     0.7942 C.ar    
   3 C3             2.7627    -1.3493     1.1241 C.ar    
   4 C4             2.3801    -0.0468     0.8715 C.ar    
   5 C5             0.0684    -0.7046     0.9767 C.ar    
   6 C6             0.4507    -2.0073     1.2298 C.ar    
   7 C7             1.8001    -2.3338     1.3018 C.ar    
   8 Cl8           -0.7535    -3.2367     1.4585 Cl      
   9 C9             1.3485     2.3515    -0.3314 C.2     
  10 C10            0.9065     3.7252    -0.6455 C.ar    
  11 O11            2.3471     1.8989    -0.8572 O.2     
  12 C12            1.5667     4.4591    -1.6403 C.ar    
  13 C13            1.1329     5.7552    -1.9212 C.ar    
  14 C14            0.0657     6.2621    -1.2031 C.ar    
  15 C15           -0.5390     5.4762    -0.2322 C.ar    
  16 N16           -0.1182     4.2560     0.0129 N.ar    
  17 N17            2.6348     3.9060    -2.3344 N.pl3   
  18 N18            2.1883    -3.6547     1.5580 N.am    
  19 C19            2.8111    -5.8637     1.2720 C.ar    
  20 C20            2.4225    -4.5967     0.6278 C.2     
  21 C21            2.4129    -4.2373     2.8857 C.3     
  22 C22            2.8139    -5.6744     2.6555 C.ar    
  23 C23            3.4519    -7.8561     3.0153 C.ar    
  24 C24            3.4729    -8.1254     1.6583 C.ar    
  25 C25            3.1524    -7.1208     0.7618 C.ar    
  26 N26            3.1285    -6.6588     3.4678 N.ar    
  27 O27            2.3269    -4.4276    -0.5723 O.2     
  28 H28           -0.1320     1.9720     0.9835 H       
  29 H29            3.8110    -1.6022     1.1834 H       
  30 H30            3.1292     0.7188     0.7337 H       
  31 H31           -0.9798    -0.4504     0.9211 H       
  32 H32            1.6194     6.3485    -2.6813 H       
  33 H33           -0.2942     7.2619    -1.3959 H       
  34 H34           -1.3724     5.8730     0.3286 H       
  35 H35            2.7401     2.9426    -2.3750 H       
  36 H36            3.2756     4.4831    -2.7785 H       
  37 H37            3.2126    -3.7030     3.3986 H       
  38 H38            1.4960    -4.1941     3.4735 H       
  39 H39            3.7014    -8.6391     3.7160 H       
  40 H40            3.7393    -9.1095     1.3019 H       
  41 H41            3.1606    -7.3038    -0.3026 H       
@<TRIPOS>BOND
   1    1    2 1
   2    1    9 am
   3    1   28 1
   4    2    5 ar
   5    2    4 ar
   6    3    4 ar
   7    3    7 ar
   8    3   29 1
   9    4   30 1
  10    5    6 ar
  11    5   31 1
  12    6    7 ar
  13    6    8 1
  14    7   18 1
  15    9   10 1
  16    9   11 2
  17   10   12 ar
  18   10   16 ar
  19   12   13 ar
  20   12   17 1
  21   13   14 ar
  22   13   32 1
  23   14   15 ar
  24   14   33 1
  25   15   16 ar
  26   15   34 1
  27   17   35 1
  28   17   36 1
  29   18   21 1
  30   18   20 am
  31   19   20 1
  32   19   22 ar
  33   19   25 ar
  34   20   27 2
  35   21   22 1
  36   21   37 1
  37   21   38 1
  38   22   26 ar
  39   23   24 ar
  40   23   26 ar
  41   23   39 1
  42   24   25 ar
  43   24   40 1
  44   25   41 1

#	End of record

