#	Name: ASD01900036
#	Creating user name:	WinNT
#	Creation time:	15. 06. 2019 19:51

#	Modifying user name:	WinNT
#	Modification time:	15. 06. 2019 19:51

#	Program:	/corina/corina34_cracker 3.40 0067  02.08.2006

@<TRIPOS>MOLECULE
ASD01900036
  32   34    0    0    0
SMALL
NO_CHARGES


@<TRIPOS>ATOM
   1 C1             0.1238     1.9316    -0.0459 C.3     
   2 C2             0.0331     0.4240     0.2154 C.3     
   3 C3             0.5042    -0.3049    -1.0378 C.3     
   4 C4             1.8889     0.0899    -1.4589 C.3     
   5 C5             2.2565     1.5633    -1.3513 C.3     
   6 C6             1.5905     2.3052    -0.2088 C.3     
   7 H7             2.0689     2.0729    -2.2964 H       
   8 H8             2.0289    -0.2170    -2.4954 H       
   9 C9             2.9659    -0.5936    -0.6445 C.2     
  10 N10            4.0075     0.2557    -0.5625 N.am    
  11 C11            3.7521     1.4818    -1.0511 C.2     
  12 C12            5.2471    -0.1062    -0.0166 C.ar    
  13 C13            5.4878    -1.4235     0.3489 C.ar    
  14 C14            6.7111    -1.7781     0.8865 C.ar    
  15 C15            7.6951    -0.8209     1.0605 C.ar    
  16 C16            7.4573     0.4930     0.6975 C.ar    
  17 C17            6.2376     0.8512     0.1541 C.ar    
  18 Cl18           8.6939     1.6912     0.9183 Cl      
  19 Cl19           7.0126    -3.4253     1.3443 Cl      
  20 O20            4.5642     2.3652    -1.2233 O.2     
  21 O21            2.9025    -1.7013    -0.1561 O.2     
  22 H22           -0.4206     2.1788    -0.9573 H       
  23 H23           -0.3014     2.4757     0.7974 H       
  24 H24            0.6714     0.1576     1.0578 H       
  25 H25           -0.9990     0.1500     0.4342 H       
  26 H26            0.4880    -1.3779    -0.8467 H       
  27 H27           -0.1863    -0.0853    -1.8520 H       
  28 H28            1.6626     3.3768    -0.3949 H       
  29 H29            2.1180     2.0740     0.7166 H       
  30 H30            4.7199    -2.1708     0.2136 H       
  31 H31            8.6502    -1.0998     1.4807 H       
  32 H32            6.0525     1.8768    -0.1292 H       
@<TRIPOS>BOND
   1    1    2 1
   2    1    6 1
   3    1   22 1
   4    1   23 1
   5    2    3 1
   6    2   24 1
   7    2   25 1
   8    3    4 1
   9    3   26 1
  10    3   27 1
  11    4    5 1
  12    4    8 1
  13    4    9 1
  14    5    6 1
  15    5    7 1
  16    5   11 1
  17    6   28 1
  18    6   29 1
  19    9   10 am
  20    9   21 2
  21   10   11 am
  22   10   12 1
  23   11   20 2
  24   12   13 ar
  25   12   17 ar
  26   13   14 ar
  27   13   30 1
  28   14   15 ar
  29   14   19 1
  30   15   16 ar
  31   15   31 1
  32   16   17 ar
  33   16   18 1
  34   17   32 1

#	End of record

