#	Name: ASD01918376
#	Creating user name:	WinNT
#	Creation time:	15. 06. 2019 20:11

#	Modifying user name:	WinNT
#	Modification time:	15. 06. 2019 20:11

#	Program:	/corina/corina34_cracker 3.40 0067  02.08.2006

@<TRIPOS>MOLECULE
ASD01918376
  41   43    0    0    0
SMALL
NO_CHARGES


@<TRIPOS>ATOM
   1 C1             0.3448     1.1829    -0.3278 C.3     
   2 C2             0.0627    -0.3147    -0.1913 C.3     
   3 C3            -1.4170    -0.5273     0.1345 C.3     
   4 O4            -2.2163    -0.0626    -0.9551 O.3     
   5 C5            -2.9531     1.1280    -0.6690 C.3     
   6 C6            -1.6764    -1.9950     0.3575 C.2     
   7 N7            -1.8769    -2.5829     1.5105 N.2     
   8 C8            -2.0645    -3.8912     1.2234 C.2     
   9 N9            -1.9677    -4.0191    -0.0750 N.2     
  10 O10           -1.7507    -2.9402    -0.5848 O.3     
  11 C11           -2.3297    -4.9772     2.1977 C.ar    
  12 C12           -2.4994    -6.2957     1.7599 C.ar    
  13 C13           -2.7445    -7.2747     2.7015 C.ar    
  14 C14           -2.8145    -6.9189     4.0521 C.ar    
  15 N15           -2.6479    -5.6545     4.4317 N.ar    
  16 C16           -2.4073    -4.6980     3.5620 C.ar    
  17 C17           -3.0687    -7.9264     5.0375 C.1     
  18 C18           -3.2771    -8.7524     5.8453 C.1     
  19 C19           -3.5313    -9.7599     6.8307 C.ar    
  20 C20           -3.7026   -11.0920     6.4445 C.ar    
  21 C21           -3.9468   -12.0581     7.3984 C.ar    
  22 C22           -4.0229   -11.7120     8.7355 C.ar    
  23 C23           -3.8547   -10.3929     9.1273 C.ar    
  24 F24           -3.9306   -10.0631    10.4352 F       
  25 C25           -3.6035    -9.4164     8.1834 C.ar    
  26 H26            1.3747     1.3305    -0.6527 H       
  27 H27           -0.3338     1.6149    -1.0634 H       
  28 H28            0.1943     1.6702     0.6356 H       
  29 H29            0.3042    -0.8167    -1.1282 H       
  30 H30            0.6744    -0.7280     0.6106 H       
  31 H31           -1.6739     0.0282     1.0364 H       
  32 H32           -3.5676     0.9708     0.2174 H       
  33 H33           -2.2600     1.9499    -0.4896 H       
  34 H34           -3.5937     1.3713    -1.5167 H       
  35 H35           -2.4404    -6.5413     0.7098 H       
  36 H36           -2.8808    -8.3025     2.3990 H       
  37 H37           -2.2729    -3.6837     3.9078 H       
  38 H38           -3.6443   -11.3645     5.4011 H       
  39 H39           -4.0792   -13.0877     7.1003 H       
  40 H40           -4.2147   -12.4729     9.4776 H       
  41 H41           -3.4676    -8.3896     8.4894 H       
@<TRIPOS>BOND
   1    1    2 1
   2    1   26 1
   3    1   27 1
   4    1   28 1
   5    2    3 1
   6    2   29 1
   7    2   30 1
   8    3    4 1
   9    3    6 1
  10    3   31 1
  11    4    5 1
  12    5   32 1
  13    5   33 1
  14    5   34 1
  15    6   10 1
  16    6    7 2
  17    7    8 1
  18    8    9 2
  19    8   11 1
  20    9   10 1
  21   11   16 ar
  22   11   12 ar
  23   12   13 ar
  24   12   35 1
  25   13   14 ar
  26   13   36 1
  27   14   15 ar
  28   14   17 1
  29   15   16 ar
  30   16   37 1
  31   17   18 3
  32   18   19 1
  33   19   25 ar
  34   19   20 ar
  35   20   21 ar
  36   20   38 1
  37   21   22 ar
  38   21   39 1
  39   22   23 ar
  40   22   40 1
  41   23   24 1
  42   23   25 ar
  43   25   41 1

#	End of record

