#	Name: ASD02198290
#	Creating user name:	WinNT
#	Creation time:	15. 06. 2019 20:19

#	Modifying user name:	WinNT
#	Modification time:	15. 06. 2019 20:19

#	Program:	/corina/corina34_cracker 3.40 0067  02.08.2006

@<TRIPOS>MOLECULE
ASD02198290
  43   46    0    0    0
SMALL
NO_CHARGES


@<TRIPOS>ATOM
   1 C1            -0.0166     1.3765     0.0096 C.2     
   2 C2             0.0021    -0.0041     0.0020 C.2     
   3 S3             1.6541     1.9351    -0.0033 S.3     
   4 C4             2.2115     0.3200    -0.0173 C.2     
   5 N5             1.2123    -0.5141    -0.0123 N.2     
   6 N6            -1.1481    -0.7789     0.0093 N.pl3   
   7 C7            -1.1673     2.1933     0.0198 C.2     
   8 O8            -2.2769     1.6846     0.0225 O.2     
   9 C9            -1.0298     3.6564     0.0270 C.2     
  10 N10            3.5379    -0.0491    -0.0327 N.pl3   
  11 C11            3.9033    -1.4677    -0.0437 C.3     
  12 S12            0.4960     4.5303     0.0236 S.3     
  13 C13           -0.3469     6.0734     0.0354 C.2     
  14 C14           -1.6941     5.8613     0.0412 C.2     
  15 C15           -2.0675     4.5439     0.0315 C.2     
  16 C16            0.3053     7.3986     0.0394 C.ar    
  17 C17            1.6983     7.4850     0.0330 C.ar    
  18 N18           -0.4386     8.4998     0.0435 N.ar    
  19 C19            0.1047     9.6994     0.0467 C.ar    
  20 C20            1.4790     9.8572     0.0454 C.ar    
  21 C21            2.2941     8.7339     0.0364 C.ar    
  22 C22            5.2974    -1.6481    -0.6698 C.3     
  23 C23            6.1893    -2.2843     0.4163 C.3     
  24 C24            5.1882    -2.9897     1.3647 C.3     
  25 C25            3.9968    -2.0006     1.4010 C.3     
  26 H26           -2.0196    -0.3531     0.0202 H       
  27 H27           -1.0811    -1.7465     0.0034 H       
  28 H28            4.2304     0.6302    -0.0362 H       
  29 H29            3.1647    -2.0389    -0.6061 H       
  30 H30           -2.4106     6.6694     0.0489 H       
  31 H31           -3.1013     4.2314     0.0343 H       
  32 H32            2.3026     6.5899     0.0259 H       
  33 H33           -0.5315    10.5721     0.0499 H       
  34 H34            1.9138    10.8458     0.0473 H       
  35 H35            3.3696     8.8324     0.0356 H       
  36 H36            5.2354    -2.3075    -1.5355 H       
  37 H37            5.7020    -0.6801    -0.9654 H       
  38 H38            6.8711    -3.0101    -0.0269 H       
  39 H39            6.7452    -1.5150     0.9522 H       
  40 H40            4.8797    -3.9513     0.9546 H       
  41 H41            5.6187    -3.1125     2.3585 H       
  42 H42            4.1986    -1.1855     2.0959 H       
  43 H43            3.0786    -2.5194     1.6763 H       
@<TRIPOS>BOND
   1    1    2 2
   2    1    3 1
   3    1    7 1
   4    2    6 1
   5    2    5 1
   6    3    4 1
   7    4    5 2
   8    4   10 1
   9    6   26 1
  10    6   27 1
  11    7    8 2
  12    7    9 1
  13    9   12 1
  14    9   15 2
  15   10   11 1
  16   10   28 1
  17   11   22 1
  18   11   25 1
  19   11   29 1
  20   12   13 1
  21   13   14 2
  22   13   16 1
  23   14   15 1
  24   14   30 1
  25   15   31 1
  26   16   17 ar
  27   16   18 ar
  28   17   21 ar
  29   17   32 1
  30   18   19 ar
  31   19   20 ar
  32   19   33 1
  33   20   21 ar
  34   20   34 1
  35   21   35 1
  36   22   23 1
  37   22   36 1
  38   22   37 1
  39   23   24 1
  40   23   38 1
  41   23   39 1
  42   24   25 1
  43   24   40 1
  44   24   41 1
  45   25   42 1
  46   25   43 1

#	End of record

