#	Name: ASD01028241
#	Creating user name:	WinNT
#	Creation time:	15. 06. 2019 18:56

#	Modifying user name:	WinNT
#	Modification time:	15. 06. 2019 18:56

#	Program:	/corina/corina34_cracker 3.40 0067  02.08.2006

@<TRIPOS>MOLECULE
ASD01028241
  74   79    0    0    0
SMALL
NO_CHARGES


@<TRIPOS>ATOM
   1 C1            -0.0166     1.3719     0.0096 C.ar    
   2 C2             0.0021    -0.0041     0.0020 C.ar    
   3 C3             1.1750     2.1035     0.0021 C.ar    
   4 C4             2.3797     1.4715    -0.0128 C.ar    
   5 C5             2.4326     0.0695    -0.0208 C.ar    
   6 C6             1.2322    -0.6815    -0.0134 C.ar    
   7 C7             3.6676    -0.6170    -0.0367 C.ar    
   8 C8             3.6411    -2.0003    -0.0444 C.ar    
   9 C9             2.4221    -2.6660    -0.0364 C.ar    
  10 N10            1.2804    -2.0188    -0.0211 N.ar    
  11 O11            4.8427     0.0593    -0.0447 O.3     
  12 C12            6.0400    -0.7207    -0.0607 C.3     
  13 C13            7.2364     0.1957    -0.0676 C.2     
  14 N14            7.8800     0.6745     1.0192 N.pl3   
  15 C15            8.9001     1.4613     0.5399 C.2     
  16 N16            8.8263     1.4215    -0.7805 N.2     
  17 N17            7.8431     0.6668    -1.1286 N.2     
  18 N18            7.7018     0.5207     2.3955 N.2     
  19 C19            8.5052     1.1248     3.2435 C.2     
  20 C20            9.5617     1.9391     2.7823 C.2     
  21 C21            9.7600     2.1073     1.4484 C.2     
  22 C22            8.2984     0.9487     4.7012 C.ar    
  23 C23            9.1384     1.5800     5.6144 C.ar    
  24 C24            7.2521     0.1498     5.1783 C.ar    
  25 C25            7.0987     0.0153     6.5433 C.ar    
  26 C26            7.9825     0.6733     7.3950 C.ar    
  27 N27            8.9587     1.4265     6.9109 N.ar    
  28 O28           -1.2065     2.0271     0.0188 O.3     
  29 C29           -1.1606     3.4553     0.0263 C.3     
  30 N30            7.8346     0.5434     8.7694 N.pl3   
  31 C31            6.7540    -0.2818     9.3150 C.3     
  32 C32            7.1107    -0.7980    10.7340 C.3     
  33 C33            5.4941     0.5724     9.6025 C.3     
  34 N34            4.7689    -0.1661    10.6523 N.am    
  35 C35            5.7267    -1.0085    11.3833 C.3     
  36 C36            3.4469    -0.0823    10.9011 C.2     
  37 O37            2.7478     0.6511    10.2305 O.2     
  38 O38            2.9010    -0.8113    11.8927 O.3     
  39 C39            1.4714    -0.6709    12.1039 C.3     
  40 C40            0.7253    -1.0819    10.8329 C.3     
  41 C41            1.0365    -1.5692    13.2636 C.3     
  42 C42            1.1458     0.7863    12.4377 C.3     
  43 H43           -0.9239    -0.5598     0.0082 H       
  44 H44            1.1387     3.1829     0.0079 H       
  45 H45            3.2932     2.0476    -0.0188 H       
  46 H46            4.5646    -2.5602    -0.0569 H       
  47 H47            2.4134    -3.7460    -0.0425 H       
  48 H48            6.0728    -1.3543     0.8256 H       
  49 H49            6.0552    -1.3447    -0.9543 H       
  50 H50           10.2133     2.4294     3.4904 H       
  51 H51           10.5670     2.7291     1.0898 H       
  52 H52            9.9458     2.2016     5.2566 H       
  53 H53            6.5811    -0.3489     4.4945 H       
  54 H54            6.3023    -0.5929     6.9463 H       
  55 H55           -0.6312     3.7971     0.9157 H       
  56 H56           -0.6396     3.8068    -0.8642 H       
  57 H57           -2.1761     3.8514     0.0333 H       
  58 H58            8.4466     0.9990     9.3683 H       
  59 H59            6.5211    -1.1096     8.6453 H       
  60 H60            7.6567    -1.7396    10.6759 H       
  61 H61            7.6847    -0.0514    11.2830 H       
  62 H62            5.7798     1.5608     9.9625 H       
  63 H63            4.8805     0.6572     8.7056 H       
  64 H64            5.4353    -2.0558    11.3037 H       
  65 H65            5.7593    -0.7093    12.4309 H       
  66 H66            0.9572    -2.1200    10.5951 H       
  67 H67           -0.3479    -0.9765    10.9915 H       
  68 H68            1.0351    -0.4419    10.0067 H       
  69 H69            1.5680    -1.2764    14.1691 H       
  70 H70           -0.0368    -1.4638    13.4221 H       
  71 H71            1.2684    -2.6073    13.0258 H       
  72 H72            1.4556     1.4263    11.6115 H       
  73 H73            0.0725     0.8917    12.5962 H       
  74 H74            1.6773     1.0791    13.3432 H       
@<TRIPOS>BOND
   1    1    2 ar
   2    1    3 ar
   3    1   28 1
   4    2    6 ar
   5    2   43 1
   6    3    4 ar
   7    3   44 1
   8    4    5 ar
   9    4   45 1
  10    5    6 ar
  11    5    7 ar
  12    6   10 ar
  13    7    8 ar
  14    7   11 1
  15    8    9 ar
  16    8   46 1
  17    9   10 ar
  18    9   47 1
  19   11   12 1
  20   12   13 1
  21   12   48 1
  22   12   49 1
  23   13   14 1
  24   13   17 2
  25   14   15 1
  26   14   18 1
  27   15   16 2
  28   15   21 1
  29   16   17 1
  30   18   19 2
  31   19   20 1
  32   19   22 1
  33   20   21 2
  34   20   50 1
  35   21   51 1
  36   22   23 ar
  37   22   24 ar
  38   23   27 ar
  39   23   52 1
  40   24   25 ar
  41   24   53 1
  42   25   26 ar
  43   25   54 1
  44   26   27 ar
  45   26   30 1
  46   28   29 1
  47   29   55 1
  48   29   56 1
  49   29   57 1
  50   30   31 1
  51   30   58 1
  52   31   32 1
  53   31   33 1
  54   31   59 1
  55   32   35 1
  56   32   60 1
  57   32   61 1
  58   33   34 1
  59   33   62 1
  60   33   63 1
  61   34   35 1
  62   34   36 am
  63   35   64 1
  64   35   65 1
  65   36   37 2
  66   36   38 1
  67   38   39 1
  68   39   40 1
  69   39   41 1
  70   39   42 1
  71   40   66 1
  72   40   67 1
  73   40   68 1
  74   41   69 1
  75   41   70 1
  76   41   71 1
  77   42   72 1
  78   42   73 1
  79   42   74 1

#	End of record

