#	Name: ASD01916635
#	Creating user name:	WinNT
#	Creation time:	15. 06. 2019 20:07

#	Modifying user name:	WinNT
#	Modification time:	15. 06. 2019 20:07

#	Program:	/corina/corina34_cracker 3.40 0067  02.08.2006

@<TRIPOS>MOLECULE
ASD01916635
  24   25    0    0    0
SMALL
NO_CHARGES


@<TRIPOS>ATOM
   1 C1            -0.0171     1.4078     0.0098 C.2     
   2 C2             0.0021    -0.0041     0.0020 C.2     
   3 C3             1.1954    -0.6539    -0.0129 C.2     
   4 C4             2.3915     0.0848    -0.0203 C.2     
   5 C5             2.3597     1.4329    -0.0128 C.2     
   6 N6             1.1675     2.1015     0.0022 N.pl3   
   7 N7            -1.0109     2.2796     0.0293 N.2     
   8 C8            -0.5015     3.5257     0.0288 C.2     
   9 C9             0.8614     3.4282     0.0127 C.2     
  10 C10           -1.2791     4.7784     0.0468 C.2     
  11 O11           -0.7056     5.8496     0.0439 O.2     
  12 O12           -2.6258     4.7352     0.0663 O.3     
  13 C13           -3.3260     6.0071     0.0833 C.3     
  14 C14           -4.8355     5.7581     0.1042 C.3     
  15 H15           -0.9226    -0.5620     0.0082 H       
  16 H16            1.2249    -1.7334    -0.0186 H       
  17 H17            3.3408    -0.4300    -0.0318 H       
  18 H18            3.2850     1.9897    -0.0183 H       
  19 H19            1.5635     4.2488     0.0110 H       
  20 H20           -3.0380     6.5685     0.9721 H       
  21 H21           -3.0642     6.5778    -0.8077 H       
  22 H22           -5.0973     5.1873     0.9951 H       
  23 H23           -5.3611     6.7129     0.1169 H       
  24 H24           -5.1234     5.1966    -0.7846 H       
@<TRIPOS>BOND
   1    1    2 1
   2    1    6 1
   3    1    7 2
   4    2    3 2
   5    2   15 1
   6    3    4 1
   7    3   16 1
   8    4    5 2
   9    4   17 1
  10    5    6 1
  11    5   18 1
  12    6    9 1
  13    7    8 1
  14    8    9 2
  15    8   10 1
  16    9   19 1
  17   10   11 2
  18   10   12 1
  19   12   13 1
  20   13   14 1
  21   13   20 1
  22   13   21 1
  23   14   22 1
  24   14   23 1
  25   14   24 1

#	End of record

