#	Name: ASD01917581
#	Creating user name:	WinNT
#	Creation time:	15. 06. 2019 20:09

#	Modifying user name:	WinNT
#	Modification time:	15. 06. 2019 20:09

#	Program:	/corina/corina34_cracker 3.40 0067  02.08.2006

@<TRIPOS>MOLECULE
ASD01917581
  20   21    0    0    0
SMALL
NO_CHARGES


@<TRIPOS>ATOM
   1 C1            -0.0161     1.3370     0.0094 C.2     
   2 N2             0.0021    -0.0041     0.0020 N.2     
   3 C3             1.1366    -0.6612    -0.0124 C.2     
   4 C4             2.3572     0.0330    -0.0203 C.2     
   5 C5             2.3528     1.3883    -0.0130 C.2     
   6 N6             1.1566     2.0498     0.0020 N.pl3   
   7 N7             0.8330     3.4114     0.0125 N.2     
   8 C8            -0.4855     3.5348     0.0257 C.2     
   9 C9            -1.0535     2.2559     0.0186 C.2     
  10 C10           -1.2320     4.8097     0.0405 C.2     
  11 O11           -2.4466     4.8022     0.0524 O.2     
  12 O12           -0.5657     5.9805     0.0407 O.3     
  13 Br13           3.9932    -0.9150    -0.0404 Br      
  14 C14           -1.3640     7.1933     0.0556 C.3     
  15 H15            1.1323    -1.7412    -0.0178 H       
  16 H16            3.2822     1.9384    -0.0189 H       
  17 H17           -2.1088     2.0265     0.0213 H       
  18 H18           -1.9841     7.2091     0.9518 H       
  19 H19           -0.7053     8.0618     0.0541 H       
  20 H20           -2.0017     7.2194    -0.8280 H       
@<TRIPOS>BOND
   1    1    2 1
   2    1    6 1
   3    1    9 2
   4    2    3 2
   5    3    4 1
   6    3   15 1
   7    4    5 2
   8    4   13 1
   9    5    6 1
  10    5   16 1
  11    6    7 1
  12    7    8 2
  13    8    9 1
  14    8   10 1
  15    9   17 1
  16   10   11 2
  17   10   12 1
  18   12   14 1
  19   14   18 1
  20   14   19 1
  21   14   20 1

#	End of record

