#	Name: ASD01812550
#	Creating user name:	WinNT
#	Creation time:	15. 06. 2019 19:28

#	Modifying user name:	WinNT
#	Modification time:	15. 06. 2019 19:28

#	Program:	/corina/corina34_cracker 3.40 0067  02.08.2006

@<TRIPOS>MOLECULE
ASD01812550
  56   59    0    0    0
SMALL
NO_CHARGES


@<TRIPOS>ATOM
   1 C1            -0.0173     1.4248     0.0099 C.3     
   2 O2             0.0021    -0.0041     0.0020 O.3     
   3 C3            -1.1983    -0.6364     0.0101 C.ar    
   4 C4            -1.2445    -2.0244     0.0088 C.ar    
   5 C5            -2.4755    -2.6573     0.0171 C.ar    
   6 C6            -3.6218    -1.8752     0.0264 C.ar    
   7 C7            -4.9838    -2.5201     0.0361 C.3     
   8 C8            -5.4271    -2.7363     1.4602 C.ar    
   9 C9            -5.2093    -3.9503     2.0871 C.ar    
  10 C10           -5.6338    -4.1095     3.4045 C.ar    
  11 N11           -6.2365    -3.1161     4.0386 N.ar    
  12 C12           -6.4631    -1.9446     3.4660 C.ar    
  13 C13           -7.1735    -0.8961     4.2835 C.3     
  14 C14           -6.9693     0.4891     3.6740 C.3     
  15 C15           -7.3358     0.4244     2.1868 C.3     
  16 C16           -6.2739    -0.4028     1.4645 C.3     
  17 C17           -6.0567    -1.7162     2.1669 C.ar    
  18 C18           -5.4096    -5.3986     4.0998 C.2     
  19 O19           -4.8570    -6.3130     3.5210 O.2     
  20 N20           -5.8187    -5.5569     5.3742 N.am    
  21 C21           -5.5971    -6.8315     6.0617 C.3     
  22 H22           -5.6957    -7.6514     5.3503 H       
  23 C23           -4.1916    -6.8477     6.6706 C.3     
  24 C24           -3.9978    -8.1493     7.4528 C.3     
  25 O25           -5.0079    -8.2543     8.4582 O.3     
  26 C26           -6.3408    -8.2916     7.9443 C.3     
  27 C27           -6.6302    -6.9967     7.1804 C.3     
  28 H28           -6.5657    -6.1500     7.8638 H       
  29 O29           -7.9411    -7.0566     6.6148 O.3     
  30 C30           -3.5011    -0.4995     0.0271 C.ar    
  31 N31           -2.3134     0.0750     0.0245 N.ar    
  32 H32            1.0053     1.8021     0.0021 H       
  33 H33           -0.5445     1.7859    -0.8732 H       
  34 H34           -0.5275     1.7763     0.9067 H       
  35 H35           -0.3321    -2.6023     0.0011 H       
  36 H36           -2.5423    -3.7353     0.0159 H       
  37 H37           -5.6970    -1.8708    -0.4718 H       
  38 H38           -4.9352    -3.4795    -0.4789 H       
  39 H39           -4.7198    -4.7592     1.5652 H       
  40 H40           -8.2392    -1.1231     4.3114 H       
  41 H41           -6.7783    -0.9037     5.2994 H       
  42 H42           -7.6127     1.2098     4.1788 H       
  43 H43           -5.9262     0.7865     3.7817 H       
  44 H44           -8.3113    -0.0474     2.0693 H       
  45 H45           -7.3621     1.4316     1.7711 H       
  46 H46           -6.5982    -0.5888     0.4406 H       
  47 H47           -5.3356     0.1516     1.4487 H       
  48 H48           -6.2598    -4.8270     5.8362 H       
  49 H49           -3.4492    -6.7869     5.8748 H       
  50 H50           -4.0763    -5.9978     7.3433 H       
  51 H51           -4.0730    -8.9972     6.7719 H       
  52 H52           -3.0148    -8.1474     7.9239 H       
  53 H53           -6.4468    -9.1414     7.2700 H       
  54 H54           -7.0458    -8.3922     8.7696 H       
  55 H55           -8.6468    -7.1610     7.2677 H       
  56 H56           -4.3900     0.1137     0.0344 H       
@<TRIPOS>BOND
   1    1    2 1
   2    1   32 1
   3    1   33 1
   4    1   34 1
   5    2    3 1
   6    3   31 ar
   7    3    4 ar
   8    4    5 ar
   9    4   35 1
  10    5    6 ar
  11    5   36 1
  12    6    7 1
  13    6   30 ar
  14    7    8 1
  15    7   37 1
  16    7   38 1
  17    8   17 ar
  18    8    9 ar
  19    9   10 ar
  20    9   39 1
  21   10   11 ar
  22   10   18 1
  23   11   12 ar
  24   12   17 ar
  25   12   13 1
  26   13   14 1
  27   13   40 1
  28   13   41 1
  29   14   15 1
  30   14   42 1
  31   14   43 1
  32   15   16 1
  33   15   44 1
  34   15   45 1
  35   16   17 1
  36   16   46 1
  37   16   47 1
  38   18   19 2
  39   18   20 am
  40   20   21 1
  41   20   48 1
  42   21   22 1
  43   21   27 1
  44   21   23 1
  45   23   24 1
  46   23   49 1
  47   23   50 1
  48   24   25 1
  49   24   51 1
  50   24   52 1
  51   25   26 1
  52   26   27 1
  53   26   53 1
  54   26   54 1
  55   27   28 1
  56   27   29 1
  57   29   55 1
  58   30   31 ar
  59   30   56 1

#	End of record

