#	Name: ASD08170056
#	Creating user name:	WinNT
#	Creation time:	15. 06. 2019 21:17

#	Modifying user name:	WinNT
#	Modification time:	15. 06. 2019 21:17

#	Program:	/corina/corina34_cracker 3.40 0067  02.08.2006

@<TRIPOS>MOLECULE
ASD08170056
  64   67    0    0    0
SMALL
NO_CHARGES


@<TRIPOS>ATOM
   1 N1            -0.0150     1.2583     0.0090 N.2     
   2 N2             0.0021    -0.0041     0.0020 N.2     
   3 C3             1.1271     1.8769     0.0014 C.2     
   4 S4             2.3826     0.7116    -0.0169 S.3     
   5 C5             1.1681    -0.5677    -0.0121 C.2     
   6 C6             1.4387    -2.0502    -0.0227 C.3     
   7 C7             1.5165    -2.5442    -1.4687 C.3     
   8 C8             1.8690    -4.5432    -2.9254 C.3     
   9 C9             2.1395    -6.0257    -2.9359 C.2     
  10 N10            1.2478    -6.9651    -2.9329 N.2     
  11 S11            3.7275    -6.7933    -2.9623 S.3     
  12 C12            2.9647    -8.3272    -2.9581 C.2     
  13 N13            1.6777    -8.1521    -2.9433 N.2     
  14 N14            3.6154    -9.5562    -2.9730 N.am    
  15 C15            2.8993   -10.6980    -2.9678 C.2     
  16 O16            1.6874   -10.6536    -2.9501 O.2     
  17 C17            3.6044   -12.0297    -2.9839 C.3     
  18 N18            1.3017     3.2566     0.0067 N.am    
  19 C19            0.2284     4.0717     0.0214 C.2     
  20 C20            0.4176     5.5667     0.0272 C.3     
  21 O21           -0.8897     3.6019     0.0299 O.2     
  22 C22            1.7912    -4.0493    -1.4794 C.3     
  23 C23            2.5684   -13.1555    -2.9740 C.3     
  24 C24           -0.9494     6.2538     0.0441 C.3     
  25 C25           -0.7601     7.7488     0.0498 C.ar    
  26 C26            3.2735   -14.4873    -2.9901 C.ar    
  27 C27           -0.6851     8.4406    -1.1446 C.ar    
  28 C28           -0.5115     9.8120    -1.1393 C.ar    
  29 C29           -0.4134    10.4917     0.0604 C.ar    
  30 C30           -0.4893     9.8000     1.2549 C.ar    
  31 C31           -0.6673     8.4291     1.2496 C.ar    
  32 C32            3.6142   -15.1034    -1.8005 C.ar    
  33 C33            4.2610   -16.3250    -1.8153 C.ar    
  34 C34            4.5668   -16.9307    -3.0197 C.ar    
  35 C35            4.2253   -16.3149    -4.2093 C.ar    
  36 C36            3.5746   -15.0954    -4.1944 C.ar    
  37 H37            2.3843    -2.2506     0.4811 H       
  38 H38            0.6334    -2.5702     0.4961 H       
  39 H39            0.5709    -2.3438    -1.9724 H       
  40 H40            2.3218    -2.0242    -1.9874 H       
  41 H41            2.6743    -4.0232    -3.4441 H       
  42 H42            0.9234    -4.3429    -3.4291 H       
  43 H43            4.5846    -9.5917    -2.9871 H       
  44 H44            4.2156   -12.1064    -3.8831 H       
  45 H45            4.2413   -12.1143    -2.1034 H       
  46 H46            2.1959     3.6323    -0.0001 H       
  47 H47            0.9817     5.8582     0.9132 H       
  48 H48            0.9643     5.8672    -0.8667 H       
  49 H49            2.7368    -4.2496    -0.9756 H       
  50 H50            0.9858    -4.5693    -0.9606 H       
  51 H51            1.9572   -13.0789    -2.0747 H       
  52 H52            1.9315   -13.0709    -3.8545 H       
  53 H53           -1.5134     5.9623    -0.8419 H       
  54 H54           -1.4960     5.9533     0.9379 H       
  55 H55           -0.7617     7.9096    -2.0819 H       
  56 H56           -0.4521    10.3524    -2.0725 H       
  57 H57           -0.2770    11.5630     0.0646 H       
  58 H58           -0.4123    10.3309     2.1922 H       
  59 H59           -0.7266     7.8887     2.1828 H       
  60 H60            3.3753   -14.6303    -0.8595 H       
  61 H61            4.5278   -16.8061    -0.8859 H       
  62 H62            5.0728   -17.8847    -3.0312 H       
  63 H63            4.4645   -16.7880    -5.1503 H       
  64 H64            3.3078   -14.6144    -5.1238 H       
@<TRIPOS>BOND
   1    1    2 1
   2    1    3 2
   3    2    5 2
   4    3    4 1
   5    3   18 1
   6    4    5 1
   7    5    6 1
   8    6    7 1
   9    6   37 1
  10    6   38 1
  11    7   22 1
  12    7   39 1
  13    7   40 1
  14    8    9 1
  15    8   22 1
  16    8   41 1
  17    8   42 1
  18    9   10 2
  19    9   11 1
  20   10   13 1
  21   11   12 1
  22   12   13 2
  23   12   14 1
  24   14   15 am
  25   14   43 1
  26   15   16 2
  27   15   17 1
  28   17   23 1
  29   17   44 1
  30   17   45 1
  31   18   19 am
  32   18   46 1
  33   19   20 1
  34   19   21 2
  35   20   24 1
  36   20   47 1
  37   20   48 1
  38   22   49 1
  39   22   50 1
  40   23   26 1
  41   23   51 1
  42   23   52 1
  43   24   25 1
  44   24   53 1
  45   24   54 1
  46   25   27 ar
  47   25   31 ar
  48   26   32 ar
  49   26   36 ar
  50   27   28 ar
  51   27   55 1
  52   28   29 ar
  53   28   56 1
  54   29   30 ar
  55   29   57 1
  56   30   31 ar
  57   30   58 1
  58   31   59 1
  59   32   33 ar
  60   32   60 1
  61   33   34 ar
  62   33   61 1
  63   34   35 ar
  64   34   62 1
  65   35   36 ar
  66   35   63 1
  67   36   64 1

#	End of record

