#	Name: ASD03912004
#	Creating user name:	WinNT
#	Creation time:	15. 06. 2019 20:47

#	Modifying user name:	WinNT
#	Modification time:	15. 06. 2019 20:47

#	Program:	/corina/corina34_cracker 3.40 0067  02.08.2006

@<TRIPOS>MOLECULE
ASD03912004
  51   52    0    0    0
SMALL
NO_CHARGES


@<TRIPOS>ATOM
   1 C1            -0.4478    -0.2198    -0.9210 C.ar    
   2 C2             0.6385     0.3411    -0.2748 C.ar    
   3 C3             0.4741     1.4685     0.5089 C.ar    
   4 C4            -0.7765     2.0377     0.6489 C.ar    
   5 C5            -1.8694     1.4769     0.0012 C.ar    
   6 C6            -1.6999     0.3483    -0.7901 C.ar    
   7 C7             1.6607     2.0764     1.2114 C.3     
   8 N8            -3.1377     2.0512     0.1409 N.am    
   9 C9            -3.2654     3.3901     0.2277 C.2     
  10 C10           -4.6359     4.0144     0.2806 C.3     
  11 O11           -2.2772     4.0924     0.2632 O.2     
  12 C12           -4.5022     5.5125     0.3750 C.ar    
  13 C13           -4.4522     6.2750    -0.7773 C.ar    
  14 C14           -4.3296     7.6484    -0.6934 C.ar    
  15 C15           -4.2566     8.2625     0.5485 C.ar    
  16 C16           -4.3069     7.4952     1.7032 C.ar    
  17 C17           -4.4353     6.1227     1.6140 C.ar    
  18 O18           -4.1355     9.6135     0.6337 O.3     
  19 C19           -4.1832    10.1879     1.9413 C.3     
  20 C20           -4.0606    11.7093     1.8347 C.3     
  21 C21           -5.5126     9.8288     2.6079 C.3     
  22 C22           -0.2642    -1.4484    -1.7741 C.3     
  23 C23           -2.7212    12.0690     1.1885 C.3     
  24 C24           -3.0447     9.6489     2.7685 C.2     
  25 O25           -2.2718     8.8544     2.2877 O.2     
  26 O26           -2.8892    10.0515     4.0395 O.3     
  27 H27            1.6173    -0.1026    -0.3820 H       
  28 H28           -0.9043     2.9178     1.2616 H       
  29 H29           -2.5479    -0.0900    -1.2954 H       
  30 H30            2.1264     2.8180     0.5624 H       
  31 H31            1.3308     2.5560     2.1330 H       
  32 H32            2.3831     1.2948     1.4470 H       
  33 H33           -3.9251     1.4856     0.1753 H       
  34 H34           -5.1884     3.7552    -0.6226 H       
  35 H35           -5.1716     3.6417     1.1536 H       
  36 H36           -4.5088     5.7964    -1.7438 H       
  37 H37           -4.2903     8.2435    -1.5938 H       
  38 H38           -4.2503     7.9710     2.6711 H       
  39 H39           -4.4745     5.5249     2.5126 H       
  40 H40           -4.8750    12.0974     1.2231 H       
  41 H41           -4.1130    12.1486     2.8309 H       
  42 H42           -5.6590     8.7494     2.5685 H       
  43 H43           -5.4977    10.1557     3.6477 H       
  44 H44           -6.3284    10.3255     2.0826 H       
  45 H45           -0.3995    -2.3397    -1.1614 H       
  46 H46           -0.9996    -1.4454    -2.5786 H       
  47 H47            0.7395    -1.4488    -2.1993 H       
  48 H48           -1.9068    11.6808     1.8001 H       
  49 H49           -2.6688    11.6296     0.1923 H       
  50 H50           -2.6339    13.1528     1.1126 H       
  51 H51           -2.1444     9.6781     4.5303 H       
@<TRIPOS>BOND
   1    1    2 ar
   2    1   22 1
   3    1    6 ar
   4    2    3 ar
   5    2   27 1
   6    3    4 ar
   7    3    7 1
   8    4    5 ar
   9    4   28 1
  10    5    6 ar
  11    5    8 1
  12    6   29 1
  13    7   30 1
  14    7   31 1
  15    7   32 1
  16    8    9 am
  17    8   33 1
  18    9   10 1
  19    9   11 2
  20   10   12 1
  21   10   34 1
  22   10   35 1
  23   12   13 ar
  24   12   17 ar
  25   13   14 ar
  26   13   36 1
  27   14   15 ar
  28   14   37 1
  29   15   16 ar
  30   15   18 1
  31   16   17 ar
  32   16   38 1
  33   17   39 1
  34   18   19 1
  35   19   20 1
  36   19   21 1
  37   19   24 1
  38   20   23 1
  39   20   40 1
  40   20   41 1
  41   21   42 1
  42   21   43 1
  43   21   44 1
  44   22   45 1
  45   22   46 1
  46   22   47 1
  47   23   48 1
  48   23   49 1
  49   23   50 1
  50   24   25 2
  51   24   26 1
  52   26   51 1

#	End of record

