#	Name: ASD01940547
#	Creating user name:	WinNT
#	Creation time:	15. 06. 2019 20:12

#	Modifying user name:	WinNT
#	Modification time:	15. 06. 2019 20:12

#	Program:	/corina/corina34_cracker 3.40 0067  02.08.2006

@<TRIPOS>MOLECULE
ASD01940547
  14   14    0    0    0
SMALL
NO_CHARGES


@<TRIPOS>ATOM
   1 C1            -0.0168     1.3908     0.0097 C.ar    
   2 C2             0.0021    -0.0041     0.0020 C.ar    
   3 N3             1.1188     2.0634     0.0025 N.ar    
   4 N4             1.1616    -0.6472    -0.0125 N.ar    
   5 C5             2.2948     0.0354    -0.0197 C.ar    
   6 C6             2.2727     1.4161    -0.0120 C.ar    
   7 N7            -1.1912    -0.7178     0.0100 N.pl3   
   8 N8            -1.1702    -2.0836     0.0025 N.3     
   9 Cl9           -1.5308     2.2401     0.0215 Cl      
  10 H10            3.2392    -0.4884    -0.0315 H       
  11 H11            3.2002     1.9693    -0.0183 H       
  12 H12           -2.0386    -0.2458     0.0210 H       
  13 H13           -2.1065    -2.4597     0.0098 H       
  14 H14           -0.6464    -2.4328    -0.7860 H       
@<TRIPOS>BOND
   1    1    2 ar
   2    1    3 ar
   3    1    9 1
   4    2    4 ar
   5    2    7 1
   6    3    6 ar
   7    4    5 ar
   8    5    6 ar
   9    5   10 1
  10    6   11 1
  11    7    8 1
  12    7   12 1
  13    8   13 1
  14    8   14 1

#	End of record

