#	Name: ASD05490250
#	Creating user name:	WinNT
#	Creation time:	15. 06. 2019 21:01

#	Modifying user name:	WinNT
#	Modification time:	15. 06. 2019 21:01

#	Program:	/corina/corina34_cracker 3.40 0067  02.08.2006

@<TRIPOS>MOLECULE
ASD05490250
  72   76    0    0    0
SMALL
NO_CHARGES


@<TRIPOS>ATOM
   1 N1            -0.0141     1.3235    -0.0016 N.ar    
   2 C2             0.0026    -0.0006    -0.0084 C.ar    
   3 C3             1.1990    -0.7004    -0.0177 C.ar    
   4 C4             2.3953     0.0106    -0.0206 C.ar    
   5 C5             2.3404     1.4047    -0.0168 C.ar    
   6 C6             1.1047     2.0380    -0.0055 C.ar    
   7 N7             3.6186    -0.6479    -0.0229 N.3     
   8 C8             3.4706    -2.0318    -0.4926 C.3     
   9 C9             4.7908    -2.7480    -0.3696 C.ar    
  10 C10            5.1047    -3.4216     0.7967 C.ar    
  11 C11            6.3147    -4.0815     0.9163 C.ar    
  12 C12            7.2157    -4.0704    -0.1288 C.ar    
  13 C13            6.9047    -3.3932    -1.3064 C.ar    
  14 C14            5.6823    -2.7352    -1.4235 C.ar    
  15 C15            9.0898    -4.0402    -2.3185 C.ar    
  16 N16            1.0387     3.4288     0.0013 N.pl3   
  17 O17           -1.1706    -0.6834    -0.0058 O.3     
  18 C18           -2.3717     0.0907     0.0043 C.3     
  19 N19            3.5364     2.1439    -0.0281 N.am    
  20 C20            4.6273     0.0692    -0.8098 C.3     
  21 C21            4.6763     1.5173    -0.3971 C.2     
  22 O22            5.7309     2.1170    -0.3961 O.2     
  23 C23            7.8697    -3.3778    -2.4337 C.ar    
  24 C24           -3.5818    -0.8455     0.0058 C.3     
  25 O25           -3.6038    -1.5935     1.2232 O.3     
  26 C26           -4.7008    -2.5034     1.3265 C.3     
  27 C27           11.3038    -4.7391    -3.2474 C.3     
  28 C28            9.9836    -4.0230    -3.3704 C.ar    
  29 C29            9.6693    -3.3501    -4.5371 C.ar    
  30 C30            8.4593    -2.6903    -4.6567 C.ar    
  31 C31            7.5584    -2.7010    -3.6114 C.ar    
  32 N32           11.1557    -6.1232    -3.7166 N.3     
  33 C33           12.4631    -6.7812    -3.8359 C.3     
  34 C34           10.4187    -6.1727    -4.9858 C.3     
  35 C35           10.1572    -7.6310    -5.3689 C.3     
  36 C36           11.4938    -8.3656    -5.5045 C.3     
  37 C37           12.2626    -8.2578    -4.1847 C.3     
  38 H38            1.2028    -1.7804    -0.0224 H       
  39 H39            2.7222    -2.5430     0.1130 H       
  40 H40            3.1542    -2.0297    -1.5357 H       
  41 H41            4.4027    -3.4322     1.6174 H       
  42 H42            6.5547    -4.6060     1.8294 H       
  43 H43            8.1604    -4.5853    -0.0342 H       
  44 H44            5.4363    -2.2088    -2.3339 H       
  45 H45            9.3379    -4.5626    -1.4064 H       
  46 H46            1.8549     3.9530    -0.0018 H       
  47 H47            0.1767     3.8734     0.0092 H       
  48 H48           -2.3941     0.7149     0.8976 H       
  49 H49           -2.4033     0.7240    -0.8823 H       
  50 H50            3.5435     3.0810     0.2224 H       
  51 H51            5.6039    -0.3863    -0.6459 H       
  52 H52            4.3737     0.0036    -1.8678 H       
  53 H53           -4.4961    -0.2577    -0.0760 H       
  54 H54           -3.5129    -1.5297    -0.8398 H       
  55 H55           -4.6458    -3.0323     2.2781 H       
  56 H56           -5.6383    -1.9500     1.2721 H       
  57 H57           -4.6551    -3.2221     0.5083 H       
  58 H58           12.0521    -4.2282    -3.8533 H       
  59 H59           11.6204    -4.7409    -2.2044 H       
  60 H60           10.3713    -3.3395    -5.3578 H       
  61 H61            8.2192    -2.1661    -5.5699 H       
  62 H62            6.6138    -2.1861    -3.7061 H       
  63 H63           13.0426    -6.2977    -4.6224 H       
  64 H64           12.9978    -6.7010    -2.8895 H       
  65 H65            9.4684    -5.6504    -4.8745 H       
  66 H66           11.0077    -5.6920    -5.7668 H       
  67 H67            9.5564    -8.1085    -4.5948 H       
  68 H68            9.6238    -7.6677    -6.3187 H       
  69 H69           11.3109    -9.4152    -5.7348 H       
  70 H70           12.0788    -7.9126    -6.3049 H       
  71 H71           13.2335    -8.7422    -4.2885 H       
  72 H72           11.6950    -8.7451    -3.3920 H       
@<TRIPOS>BOND
   1    1    2 ar
   2    1    6 ar
   3    2    3 ar
   4    2   17 1
   5    3    4 ar
   6    3   38 1
   7    4    5 ar
   8    4    7 1
   9    5    6 ar
  10    5   19 1
  11    6   16 1
  12    7    8 1
  13    7   20 1
  14    8    9 1
  15    8   39 1
  16    8   40 1
  17    9   10 ar
  18    9   14 ar
  19   10   11 ar
  20   10   41 1
  21   11   12 ar
  22   11   42 1
  23   12   13 ar
  24   12   43 1
  25   13   14 ar
  26   13   23 1
  27   14   44 1
  28   15   23 ar
  29   15   28 ar
  30   15   45 1
  31   16   46 1
  32   16   47 1
  33   17   18 1
  34   18   24 1
  35   18   48 1
  36   18   49 1
  37   19   21 am
  38   19   50 1
  39   20   21 1
  40   20   51 1
  41   20   52 1
  42   21   22 2
  43   23   31 ar
  44   24   25 1
  45   24   53 1
  46   24   54 1
  47   25   26 1
  48   26   55 1
  49   26   56 1
  50   26   57 1
  51   27   28 1
  52   27   32 1
  53   27   58 1
  54   27   59 1
  55   28   29 ar
  56   29   30 ar
  57   29   60 1
  58   30   31 ar
  59   30   61 1
  60   31   62 1
  61   32   33 1
  62   32   34 1
  63   33   37 1
  64   33   63 1
  65   33   64 1
  66   34   35 1
  67   34   65 1
  68   34   66 1
  69   35   36 1
  70   35   67 1
  71   35   68 1
  72   36   37 1
  73   36   69 1
  74   36   70 1
  75   37   71 1
  76   37   72 1

#	End of record

