#	Name: ASD01680050
#	Creating user name:	WinNT
#	Creation time:	15. 06. 2019 19:22

#	Modifying user name:	WinNT
#	Modification time:	15. 06. 2019 19:22

#	Program:	/corina/corina34_cracker 3.40 0067  02.08.2006

@<TRIPOS>MOLECULE
ASD01680050
  83   86    0    0    0
SMALL
NO_CHARGES


@<TRIPOS>ATOM
   1 N1            -0.2399    -1.4349    -2.3528 N.am    
   2 C2             0.0478    -2.7966    -2.8392 C.3     
   3 C3             1.3671    -3.1991    -2.1341 C.3     
   4 C4             2.1402    -1.8538    -2.1283 C.3     
   5 C5             1.0202    -0.8125    -1.9212 C.3     
   6 C6            -1.4558    -0.8547    -2.3154 C.2     
   7 O7            -2.4158    -1.4242    -2.7955 O.2     
   8 O8            -1.6067     0.3560    -1.7460 O.3     
   9 C9            -1.0800    -3.7523    -2.4445 C.3     
  10 N10           -1.3741    -3.5981    -1.0135 N.3     
  11 C11           -2.5451    -4.3969    -0.6278 C.3     
  12 N12           -2.6136    -4.5210     0.8339 N.2     
  13 C13           -3.7259    -3.9862     1.2111 C.2     
  14 C14           -4.4576    -3.4794     0.0393 C.2     
  15 N15           -3.7798    -3.7133    -1.0338 N.2     
  16 O16            3.0750    -1.8126    -1.0483 O.3     
  17 C17            4.2349    -1.0212    -1.3135 C.3     
  18 C18            5.1466    -1.0485    -0.1139 C.2     
  19 N19            6.3096    -0.3676    -0.1357 N.am    
  20 O20            4.8339    -1.6830     0.8712 O.2     
  21 C21            7.1959    -0.3941     1.0305 C.3     
  22 C22            8.4378     0.4532     0.7465 C.3     
  23 N23            8.0282     1.8041     0.3546 N.am    
  24 S24            8.9042     2.6399    -0.7751 S.o2    
  25 O25            8.2405     3.8830    -0.9583 O.2     
  26 O26           10.2663     2.5363    -0.3838 O.2     
  27 C27            8.7567     1.7679    -2.2991 C.ar    
  28 C28            9.6550     0.7646    -2.6111 C.ar    
  29 C29            9.5393     0.0805    -3.8067 C.ar    
  30 C30            8.5251     0.3994    -4.6902 C.ar    
  31 C31            7.6263     1.4021    -4.3778 C.ar    
  32 C32            7.7394     2.0833    -3.1803 C.ar    
  33 C33            6.7564     3.1729    -2.8374 C.3     
  34 C34            8.3996    -0.3457    -5.9941 C.3     
  35 C35           10.7607     0.4168    -1.6479 C.3     
  36 C36            9.2901     0.5267     1.9871 C.2     
  37 O37            9.5308     1.5977     2.4922 O.2     
  38 O38            9.7820    -0.5975     2.5311 O.3     
  39 C39           -2.9446     0.9203    -1.7417 C.3     
  40 C40           -2.9191     2.2681    -1.0681 C.ar    
  41 C41           -2.6903     3.4093    -1.8138 C.ar    
  42 C42           -2.6669     4.6456    -1.1959 C.ar    
  43 C43           -2.8728     4.7408     0.1678 C.ar    
  44 C44           -3.1026     3.5996     0.9133 C.ar    
  45 C45           -3.1303     2.3637     0.2947 C.ar    
  46 H46            0.1816    -2.7926    -3.9209 H       
  47 H47            1.1773    -3.5450    -1.1181 H       
  48 H48            1.9024    -3.9548    -2.7089 H       
  49 H49            2.6436    -1.6942    -3.0819 H       
  50 H50            1.2216     0.0733    -2.5237 H       
  51 H51            0.9574    -0.5403    -0.8676 H       
  52 H52           -1.9725    -3.5209    -3.0259 H       
  53 H53           -0.7726    -4.7789    -2.6437 H       
  54 H54           -0.5714    -3.8385    -0.4514 H       
  55 H55           -2.4932    -5.3843    -1.0865 H       
  56 H56           -4.0685    -3.9208     2.2333 H       
  57 H57           -5.4177    -2.9859     0.0723 H       
  58 H58            4.7606    -1.4255    -2.1786 H       
  59 H59            3.9346     0.0064    -1.5184 H       
  60 H60            6.5597     0.1399    -0.9236 H       
  61 H61            6.6702     0.0102     1.8955 H       
  62 H62            7.4962    -1.4217     1.2353 H       
  63 H63            9.0109    -0.0015    -0.0616 H       
  64 H64            7.2439     2.2089     0.7569 H       
  65 H65           10.2416    -0.7029    -4.0507 H       
  66 H66            6.8341     1.6516    -5.0682 H       
  67 H67            7.1904     4.1431    -3.0796 H       
  68 H68            5.8412     3.0306    -3.4121 H       
  69 H69            6.5268     3.1333    -1.7726 H       
  70 H70            7.7575    -1.2154    -5.8552 H       
  71 H71            7.9641     0.3109    -6.7473 H       
  72 H72            9.3865    -0.6714    -6.3228 H       
  73 H73           10.3675    -0.2256    -0.8600 H       
  74 H74           11.5552    -0.1060    -2.1803 H       
  75 H75           11.1590     1.3306    -1.2068 H       
  76 H76           10.3233    -0.5000     3.3265 H       
  77 H77           -3.2945     1.0335    -2.7678 H       
  78 H78           -3.6174     0.2558    -1.1996 H       
  79 H79           -2.5294     3.3350    -2.8792 H       
  80 H80           -2.4874     5.5372    -1.7784 H       
  81 H81           -2.8539     5.7066     0.6507 H       
  82 H82           -3.2631     3.6739     1.9788 H       
  83 H83           -3.3134     1.4725     0.8766 H       
@<TRIPOS>BOND
   1    1    2 1
   2    1    5 1
   3    1    6 am
   4    2    3 1
   5    2    9 1
   6    2   46 1
   7    3    4 1
   8    3   47 1
   9    3   48 1
  10    4    5 1
  11    4   16 1
  12    4   49 1
  13    5   50 1
  14    5   51 1
  15    6    7 2
  16    6    8 1
  17    8   39 1
  18    9   10 1
  19    9   52 1
  20    9   53 1
  21   10   11 1
  22   10   54 1
  23   11   12 1
  24   11   15 1
  25   11   55 1
  26   12   13 2
  27   13   14 1
  28   13   56 1
  29   14   15 2
  30   14   57 1
  31   16   17 1
  32   17   18 1
  33   17   58 1
  34   17   59 1
  35   18   19 am
  36   18   20 2
  37   19   21 1
  38   19   60 1
  39   21   22 1
  40   21   61 1
  41   21   62 1
  42   22   23 1
  43   22   36 1
  44   22   63 1
  45   23   24 am
  46   23   64 1
  47   24   25 2
  48   24   26 2
  49   24   27 1
  50   27   28 ar
  51   27   32 ar
  52   28   29 ar
  53   28   35 1
  54   29   30 ar
  55   29   65 1
  56   30   31 ar
  57   30   34 1
  58   31   32 ar
  59   31   66 1
  60   32   33 1
  61   33   67 1
  62   33   68 1
  63   33   69 1
  64   34   70 1
  65   34   71 1
  66   34   72 1
  67   35   73 1
  68   35   74 1
  69   35   75 1
  70   36   37 2
  71   36   38 1
  72   38   76 1
  73   39   40 1
  74   39   77 1
  75   39   78 1
  76   40   41 ar
  77   40   45 ar
  78   41   42 ar
  79   41   79 1
  80   42   43 ar
  81   42   80 1
  82   43   44 ar
  83   43   81 1
  84   44   45 ar
  85   44   82 1
  86   45   83 1

#	End of record

