#	Name: ASD01680083
#	Creating user name:	WinNT
#	Creation time:	15. 06. 2019 19:22

#	Modifying user name:	WinNT
#	Modification time:	15. 06. 2019 19:22

#	Program:	/corina/corina34_cracker 3.40 0067  02.08.2006

@<TRIPOS>MOLECULE
ASD01680083
  89   92    0    0    0
SMALL
NO_CHARGES


@<TRIPOS>ATOM
   1 C1            -1.5995     1.1785    -0.7008 C.2     
   2 C2            -1.4019    -0.3130    -0.7864 C.3     
   3 C3            -1.8754    -0.8127    -2.1528 C.3     
   4 O4            -0.6509     1.9040    -0.5169 O.2     
   5 O5            -2.8285     1.7014    -0.8343 O.3     
   6 N6             0.0188    -0.6280    -0.6167 N.am    
   7 S7             0.6041    -1.0342     0.8782 S.o2    
   8 O8             1.9871    -1.3113     0.7059 O.2     
   9 O9             0.1148    -0.0520     1.7811 O.2     
  10 C10           -0.1547    -2.5560     1.3395 C.ar    
  11 C11           -1.2512    -2.5544     2.1813 C.ar    
  12 C12           -1.8464    -3.7484     2.5433 C.ar    
  13 C13           -1.3454    -4.9439     2.0631 C.ar    
  14 C14           -0.2495    -4.9455     1.2206 C.ar    
  15 C15            0.3431    -3.7512     0.8552 C.ar    
  16 C16            1.5347    -3.7526    -0.0674 C.3     
  17 C17           -1.9937    -6.2456     2.4585 C.3     
  18 C18           -1.7973    -1.2511     2.7048 C.3     
  19 N19           -1.5741    -2.2405    -2.2819 N.am    
  20 C20           -1.9035    -2.8994    -3.4105 C.2     
  21 O21           -2.4494    -2.3102    -4.3193 O.2     
  22 C22           -1.5936    -4.3682    -3.5434 C.3     
  23 O23           -2.0359    -4.8348    -4.8196 O.3     
  24 N24           -3.9534    -6.9962    -5.7243 N.am    
  25 C25           -2.9978    -7.0837    -4.6052 C.3     
  26 C26           -1.7882    -6.2234    -5.0485 C.3     
  27 C27           -1.7250    -6.5341    -6.5673 C.3     
  28 C28           -3.2124    -6.6765    -6.9532 C.3     
  29 C29           -3.3800    -7.8066    -7.9709 C.3     
  30 N30           -2.7254    -7.4335    -9.2273 N.pl3   
  31 C31           -2.6561    -8.3468   -10.2728 C.ar    
  32 C32           -3.2105    -9.6137   -10.1195 C.ar    
  33 C33           -3.1344   -10.5125   -11.1679 C.ar    
  34 C34           -2.5040   -10.1128   -12.3391 C.ar    
  35 C35           -1.9759    -8.8403   -12.4223 C.ar    
  36 N36           -2.0679    -8.0016   -11.4076 N.ar    
  37 C37           -5.2852    -7.1840    -5.6366 C.2     
  38 N38           -5.8597    -7.3837    -4.4339 N.am    
  39 O39           -5.9682    -7.1732    -6.6424 O.2     
  40 C40           -7.3073    -7.5879    -4.3384 C.3     
  41 C41           -7.6282    -8.3786    -3.0686 C.3     
  42 C42           -9.1400    -8.5919    -2.9689 C.3     
  43 C43           -9.8441    -7.2345    -2.9161 C.3     
  44 C44           -9.5232    -6.4438    -4.1860 C.3     
  45 C45           -8.0114    -6.2306    -4.2856 C.3     
  46 H46           -1.9786    -0.8016    -0.0010 H       
  47 H47           -2.9506    -0.6585    -2.2433 H       
  48 H48           -1.3616    -0.2603    -2.9396 H       
  49 H49           -2.9054     2.6634    -0.7720 H       
  50 H50            0.6166    -0.5986    -1.3800 H       
  51 H51           -2.7026    -3.7472     3.2015 H       
  52 H52            0.1421    -5.8796     0.8457 H       
  53 H53            2.4507    -3.7138     0.5221 H       
  54 H54            1.5277    -4.6618    -0.6685 H       
  55 H55            1.4875    -2.8832    -0.7231 H       
  56 H56           -2.7753    -6.4950     1.7409 H       
  57 H57           -1.2439    -7.0367     2.4686 H       
  58 H58           -2.4308    -6.1467     3.4521 H       
  59 H59           -2.3143    -0.7252     1.9021 H       
  60 H60           -2.4958    -1.4501     3.5176 H       
  61 H61           -0.9769    -0.6352     3.0733 H       
  62 H62           -1.1376    -2.7117    -1.5551 H       
  63 H63           -0.5184    -4.5223    -3.4528 H       
  64 H64           -2.1074    -4.9205    -2.7566 H       
  65 H65           -3.4400    -6.6764    -3.6960 H       
  66 H66           -2.6908    -8.1177    -4.4485 H       
  67 H67           -0.8758    -6.5435    -4.5453 H       
  68 H68           -1.2628    -5.7098    -7.1106 H       
  69 H69           -1.1887    -7.4656    -6.7485 H       
  70 H70           -3.5777    -5.7394    -7.3732 H       
  71 H71           -2.9254    -8.7172    -7.5808 H       
  72 H72           -4.4411    -7.9787    -8.1512 H       
  73 H73           -2.3403    -6.5491    -9.3295 H       
  74 H74           -3.6933    -9.8916    -9.1943 H       
  75 H75           -3.5553   -11.5029   -11.0777 H       
  76 H76           -2.4275   -10.7910   -13.1761 H       
  77 H77           -1.4848    -8.5255   -13.3313 H       
  78 H78           -5.3148    -7.3923    -3.6315 H       
  79 H79           -7.6541    -8.1434    -5.2098 H       
  80 H80           -7.1266    -9.3456    -3.1062 H       
  81 H81           -7.2814    -7.8231    -2.1972 H       
  82 H82           -9.4868    -9.1474    -3.8402 H       
  83 H83           -9.3686    -9.1552    -2.0642 H       
  84 H84          -10.9211    -7.3864    -2.8451 H       
  85 H85           -9.4973    -6.6790    -2.0448 H       
  86 H86           -9.8700    -6.9993    -5.0573 H       
  87 H87          -10.0248    -5.4768    -4.1483 H       
  88 H88           -7.6646    -5.6750    -3.4143 H       
  89 H89           -7.7827    -5.6672    -5.1903 H       
@<TRIPOS>BOND
   1    1    2 1
   2    1    4 2
   3    1    5 1
   4    2    3 1
   5    2    6 1
   6    2   46 1
   7    3   19 1
   8    3   47 1
   9    3   48 1
  10    5   49 1
  11    6    7 am
  12    6   50 1
  13    7    8 2
  14    7    9 2
  15    7   10 1
  16   10   11 ar
  17   10   15 ar
  18   11   12 ar
  19   11   18 1
  20   12   13 ar
  21   12   51 1
  22   13   14 ar
  23   13   17 1
  24   14   15 ar
  25   14   52 1
  26   15   16 1
  27   16   53 1
  28   16   54 1
  29   16   55 1
  30   17   56 1
  31   17   57 1
  32   17   58 1
  33   18   59 1
  34   18   60 1
  35   18   61 1
  36   19   20 am
  37   19   62 1
  38   20   21 2
  39   20   22 1
  40   22   23 1
  41   22   63 1
  42   22   64 1
  43   23   26 1
  44   24   25 1
  45   24   28 1
  46   24   37 am
  47   25   26 1
  48   25   65 1
  49   25   66 1
  50   26   27 1
  51   26   67 1
  52   27   28 1
  53   27   68 1
  54   27   69 1
  55   28   29 1
  56   28   70 1
  57   29   30 1
  58   29   71 1
  59   29   72 1
  60   30   31 1
  61   30   73 1
  62   31   32 ar
  63   31   36 ar
  64   32   33 ar
  65   32   74 1
  66   33   34 ar
  67   33   75 1
  68   34   35 ar
  69   34   76 1
  70   35   36 ar
  71   35   77 1
  72   37   38 am
  73   37   39 2
  74   38   40 1
  75   38   78 1
  76   40   41 1
  77   40   45 1
  78   40   79 1
  79   41   42 1
  80   41   80 1
  81   41   81 1
  82   42   43 1
  83   42   82 1
  84   42   83 1
  85   43   44 1
  86   43   84 1
  87   43   85 1
  88   44   45 1
  89   44   86 1
  90   44   87 1
  91   45   88 1
  92   45   89 1

#	End of record

