#	Name: ASD00990089
#	Creating user name:	WinNT
#	Creation time:	15. 06. 2019 18:54

#	Modifying user name:	WinNT
#	Modification time:	15. 06. 2019 18:54

#	Program:	/corina/corina34_cracker 3.40 0067  02.08.2006

@<TRIPOS>MOLECULE
ASD00990089
  43   45    0    0    0
SMALL
NO_CHARGES


@<TRIPOS>ATOM
   1 C1            -0.0167     1.3769     0.0096 C.ar    
   2 C2             0.0021    -0.0041     0.0020 C.ar    
   3 C3             1.2125    -0.6793    -0.0131 C.ar    
   4 C4             2.4067     0.0410    -0.0207 C.ar    
   5 C5             2.3813     1.4268    -0.0126 C.ar    
   6 C6             1.1696     2.0920     0.0021 C.ar    
   7 O7             1.5364    -1.9958    -0.0237 O.3     
   8 C8             2.8727    -2.1210    -0.0374 C.2     
   9 N9             3.4381    -0.8975    -0.0360 N.am    
  10 C10            4.8739    -0.6067    -0.0483 C.3     
  11 C11            5.3526    -0.4995    -1.4732 C.2     
  12 N12            6.6489    -0.2352    -1.7306 N.am    
  13 C13            7.1142    -0.1310    -3.1158 C.3     
  14 O14            4.5713    -0.6512    -2.3884 O.2     
  15 C15            7.5926    -0.0521    -0.6251 C.3     
  16 C16            6.9917     1.2972    -3.5808 C.2     
  17 N17            7.9938     2.2164    -3.5466 N.pl3   
  18 C18            7.4867     3.3959    -4.0559 C.ar    
  19 C19            6.1482     3.1301    -4.3892 C.ar    
  20 N20            5.9137     1.8292    -4.0786 N.2     
  21 C21            8.0165     4.6609    -4.2708 C.ar    
  22 C22            7.2265     5.6526    -4.8111 C.ar    
  23 C23            5.9023     5.3955    -5.1422 C.ar    
  24 C24            5.3604     4.1465    -4.9366 C.ar    
  25 O25            3.4792    -3.1748    -0.0493 O.2     
  26 Cl26           4.9232     6.6583    -5.8207 Cl      
  27 Cl27           1.1347     3.8276     0.0117 Cl      
  28 H28           -0.9606     1.9017     0.0169 H       
  29 H29           -0.9255    -0.5573     0.0082 H       
  30 H30            3.3056     1.9853    -0.0178 H       
  31 H31            5.0583     0.3350     0.4688 H       
  32 H32            5.4116    -1.4095     0.4562 H       
  33 H33            8.1567    -0.4438    -3.1734 H       
  34 H34            6.5063    -0.7738    -3.7526 H       
  35 H35            8.0306    -1.0138    -0.3582 H       
  36 H36            8.3821     0.6343    -0.9313 H       
  37 H37            7.0673     0.3597     0.2367 H       
  38 H38            8.8969     2.0706    -3.2242 H       
  39 H39            9.0452     4.8676    -4.0150 H       
  40 H40            7.6398     6.6363    -4.9779 H       
  41 H41            4.3300     3.9534    -5.1962 H       
  42 Cl42          14.0452    11.6583     5.4688 Cl      
  43 H43           14.0452    13.0283     5.4688 H       
@<TRIPOS>BOND
   1    1    2 ar
   2    1    6 ar
   3    1   28 1
   4    2    3 ar
   5    2   29 1
   6    3    4 ar
   7    3    7 1
   8    4    5 ar
   9    4    9 1
  10    5    6 ar
  11    5   30 1
  12    6   27 1
  13    7    8 1
  14    8    9 am
  15    8   25 2
  16    9   10 1
  17   10   11 1
  18   10   31 1
  19   10   32 1
  20   11   12 am
  21   11   14 2
  22   12   13 1
  23   12   15 1
  24   13   16 1
  25   13   33 1
  26   13   34 1
  27   15   35 1
  28   15   36 1
  29   15   37 1
  30   16   17 1
  31   16   20 2
  32   17   18 1
  33   17   38 1
  34   18   19 ar
  35   18   21 ar
  36   19   20 1
  37   19   24 ar
  38   21   22 ar
  39   21   39 1
  40   22   23 ar
  41   22   40 1
  42   23   24 ar
  43   23   26 1
  44   24   41 1
  45   42   43 1

#	End of record

