#	Name: ASD03331344
#	Creating user name:	WinNT
#	Creation time:	15. 06. 2019 20:39

#	Modifying user name:	WinNT
#	Modification time:	15. 06. 2019 20:39

#	Program:	/corina/corina34_cracker 3.40 0067  02.08.2006

@<TRIPOS>MOLECULE
ASD03331344
  68   71    0    0    0
SMALL
NO_CHARGES


@<TRIPOS>ATOM
   1 C1            -0.3045     1.2845     0.0662 C.3     
   2 C2            -0.2384    -0.2127    -0.1012 C.2     
   3 C3             0.8979    -0.8800    -0.4160 C.2     
   4 C4             2.2236    -0.1949    -0.6387 C.3     
   5 C5             1.9513     1.3023    -0.8413 C.3     
   6 N6             1.0688     1.7924     0.2264 N.3     
   7 N7            -0.7649    -2.3489    -0.2020 N.2     
   8 N8             0.6024    -2.1999    -0.4826 N.am    
   9 C9            -1.2718    -1.1543     0.0273 C.2     
  10 C10            1.4671    -3.1936    -0.7676 C.2     
  11 O11            2.6331    -2.9379    -0.9942 O.2     
  12 N12            1.0385    -4.4710    -0.8013 N.am    
  13 C13           -2.6860    -0.8567     0.3624 C.ar    
  14 C14           -3.3486    -1.6095     1.3330 C.ar    
  15 C15           -4.6660    -1.3283     1.6422 C.ar    
  16 C16           -5.3284    -0.3018     0.9903 C.ar    
  17 C17           -4.6737     0.4488     0.0244 C.ar    
  18 C18           -3.3548     0.1788    -0.2868 C.ar    
  19 F19           -5.3250     1.4488    -0.6088 F       
  20 F20           -6.6163    -0.0307     1.2954 F       
  21 F21           -2.7035    -2.6117     1.9690 F       
  22 C22            1.0833     3.2600     0.2892 C.3     
  23 C23            1.2247    -6.7248    -1.6815 C.2     
  24 C24            1.9784    -5.5511    -1.1111 C.3     
  25 C25            2.7004    -5.9813     0.1674 C.3     
  26 C26            3.5862    -7.1927    -0.1301 C.3     
  27 O27            0.1153    -6.9910    -1.2699 O.2     
  28 C28            3.5676    -4.8280     0.6761 C.3     
  29 C29            1.6693    -6.3533     1.2348 C.3     
  30 N30            1.7833    -7.4787    -2.6490 N.am    
  31 C31            1.2098    -8.7079    -3.2160 C.3     
  32 C32            2.2073    -9.2359    -4.2685 C.3     
  33 C33            3.5475    -8.5860    -3.8338 C.3     
  34 C34            3.0677    -7.2037    -3.3185 C.3     
  35 C35           -0.1124    -8.4018    -3.8712 C.2     
  36 N36           -0.8175    -9.3885    -4.4593 N.am    
  37 O37           -0.5419    -7.2677    -3.8692 O.2     
  38 H38           -0.7617     1.7331    -0.8157 H       
  39 H39           -0.8925     1.5298     0.9506 H       
  40 H40            2.8642    -0.3390     0.2314 H       
  41 H41            2.7067    -0.6054    -1.5254 H       
  42 H42            2.8936     1.8495    -0.8130 H       
  43 H43            1.4716     1.4563    -1.8078 H       
  44 H44            0.1076    -4.6751    -0.6204 H       
  45 H45           -5.1796    -1.9103     2.3932 H       
  46 H46           -2.8447     0.7666    -1.0356 H       
  47 H47            0.4861     3.5933     1.1380 H       
  48 H48            2.1093     3.6085     0.4075 H       
  49 H49            0.6652     3.6672    -0.6314 H       
  50 H50            2.7087    -5.1994    -1.8399 H       
  51 H51            4.3720    -6.9054    -0.8287 H       
  52 H52            4.0363    -7.5499     0.7961 H       
  53 H53            2.9814    -7.9859    -0.5697 H       
  54 H54            2.9365    -3.9649     0.8880 H       
  55 H55            4.0819    -5.1344     1.5869 H       
  56 H56            4.3022    -4.5629    -0.0844 H       
  57 H57            1.0515    -7.1749     0.8724 H       
  58 H58            2.1836    -6.6597     2.1456 H       
  59 H59            1.0382    -5.4902     1.4467 H       
  60 H60            1.0731    -9.4502    -2.4296 H       
  61 H61            2.2740   -10.3230    -4.2254 H       
  62 H62            1.9246    -8.9052    -5.2678 H       
  63 H63            4.0204    -9.1609    -3.0376 H       
  64 H64            4.2203    -8.4721    -4.6838 H       
  65 H65            2.9218    -6.5156    -4.1512 H       
  66 H66            3.7857    -6.7940    -2.6081 H       
  67 H67           -0.4739   -10.2956    -4.4608 H       
  68 H68           -1.6685    -9.1915    -4.8810 H       
@<TRIPOS>BOND
   1    1    2 1
   2    1    6 1
   3    1   38 1
   4    1   39 1
   5    2    3 2
   6    2    9 1
   7    3    4 1
   8    3    8 1
   9    4    5 1
  10    4   40 1
  11    4   41 1
  12    5    6 1
  13    5   42 1
  14    5   43 1
  15    6   22 1
  16    7    8 1
  17    7    9 2
  18    8   10 am
  19    9   13 1
  20   10   11 2
  21   10   12 am
  22   12   24 1
  23   12   44 1
  24   13   14 ar
  25   13   18 ar
  26   14   15 ar
  27   14   21 1
  28   15   16 ar
  29   15   45 1
  30   16   17 ar
  31   16   20 1
  32   17   18 ar
  33   17   19 1
  34   18   46 1
  35   22   47 1
  36   22   48 1
  37   22   49 1
  38   23   27 2
  39   23   30 am
  40   23   24 1
  41   24   25 1
  42   24   50 1
  43   25   26 1
  44   25   28 1
  45   25   29 1
  46   26   51 1
  47   26   52 1
  48   26   53 1
  49   28   54 1
  50   28   55 1
  51   28   56 1
  52   29   57 1
  53   29   58 1
  54   29   59 1
  55   30   31 1
  56   30   34 1
  57   31   32 1
  58   31   35 1
  59   31   60 1
  60   32   33 1
  61   32   61 1
  62   32   62 1
  63   33   34 1
  64   33   63 1
  65   33   64 1
  66   34   65 1
  67   34   66 1
  68   35   36 am
  69   35   37 2
  70   36   67 1
  71   36   68 1

#	End of record

