#	Name: ASD01900827
#	Creating user name:	WinNT
#	Creation time:	15. 06. 2019 19:52

#	Modifying user name:	WinNT
#	Modification time:	15. 06. 2019 19:52

#	Program:	/corina/corina34_cracker 3.40 0067  02.08.2006

@<TRIPOS>MOLECULE
ASD01900827
  54   58    0    0    0
SMALL
NO_CHARGES


@<TRIPOS>ATOM
   1 C1             0.1368     0.8577    -0.2639 C.ar    
   2 C2             0.3181    -0.5087    -0.3026 C.ar    
   3 C3             1.5922    -1.0468    -0.4112 C.ar    
   4 C4             2.7000    -0.2216    -0.4747 C.ar    
   5 C5             2.5350     1.1520    -0.4312 C.ar    
   6 C6             1.2435     1.7008    -0.3357 C.ar    
   7 N7             3.6194     2.0213    -0.4723 N.pl3   
   8 C8             3.4309     3.3614    -1.0393 C.3     
   9 N9             2.1742     3.9412    -0.5638 N.am    
  10 C10            1.1021     3.1665    -0.3044 C.2     
  11 C11            2.0843     5.3244    -0.3737 C.ar    
  12 C12            1.4369     6.1151    -1.3141 C.ar    
  13 C13            1.3496     7.4803    -1.1241 C.ar    
  14 C14            1.9066     8.0603     0.0022 C.ar    
  15 C15            2.5522     7.2747     0.9408 C.ar    
  16 C16            2.6373     5.9084     0.7585 C.ar    
  17 Cl17           1.7955     9.7767     0.2377 Cl      
  18 O18            0.0270     3.6735    -0.0470 O.2     
  19 Br19           1.8158    -2.9235    -0.4723 Br      
  20 C20            4.5975     4.2584    -0.6152 C.3     
  21 C21            3.4027     3.2653    -2.5673 C.3     
  22 C22            3.2749     4.6710    -3.1588 C.3     
  23 N23            4.4110     5.4926    -2.7228 N.3     
  24 C24            4.4342     5.6360    -1.2617 C.3     
  25 C25            4.3938     6.8061    -3.3805 C.3     
  26 C26            5.5092     7.6576    -2.8311 C.ar    
  27 C27            6.7867     7.5374    -3.3449 C.ar    
  28 C28            7.8118     8.3171    -2.8422 C.ar    
  29 C29            7.5592     9.2194    -1.8240 C.ar    
  30 C30            6.2772     9.3404    -1.3088 C.ar    
  31 C31            5.2524     8.5622    -1.8176 C.ar    
  32 F32            8.5604     9.9814    -1.3319 F       
  33 F33            6.0283    10.2204    -0.3144 F       
  34 H34           -0.8573     1.2718    -0.1829 H       
  35 H35           -0.5380    -1.1648    -0.2476 H       
  36 H36            3.6893    -0.6468    -0.5574 H       
  37 H37            4.4852     1.7467    -0.1319 H       
  38 H38            1.0024     5.6630    -2.1934 H       
  39 H39            0.8466     8.0957    -1.8552 H       
  40 H40            2.9860     7.7299     1.8189 H       
  41 H41            3.1374     5.2951     1.4935 H       
  42 H42            4.6005     4.3634     0.4697 H       
  43 H43            5.5371     3.8123    -0.9413 H       
  44 H44            4.3254     2.8044    -2.9201 H       
  45 H45            2.5509     2.6606    -2.8784 H       
  46 H46            3.2688     4.6078    -4.2470 H       
  47 H47            2.3453     5.1258    -2.8166 H       
  48 H48            3.4999     6.0862    -0.9260 H       
  49 H49            5.2692     6.2742    -0.9726 H       
  50 H50            4.5305     6.6767    -4.4541 H       
  51 H51            3.4376     7.2942    -3.1922 H       
  52 H52            6.9845     6.8333    -4.1396 H       
  53 H53            8.8097     8.2217    -3.2440 H       
  54 H54            4.2528     8.6586    -1.4203 H       
@<TRIPOS>BOND
   1    1    2 ar
   2    1    6 ar
   3    1   34 1
   4    2    3 ar
   5    2   35 1
   6    3    4 ar
   7    3   19 1
   8    4    5 ar
   9    4   36 1
  10    5    7 1
  11    5    6 ar
  12    6   10 1
  13    7    8 1
  14    7   37 1
  15    8    9 1
  16    8   21 1
  17    8   20 1
  18    9   10 am
  19    9   11 1
  20   10   18 2
  21   11   12 ar
  22   11   16 ar
  23   12   13 ar
  24   12   38 1
  25   13   14 ar
  26   13   39 1
  27   14   15 ar
  28   14   17 1
  29   15   16 ar
  30   15   40 1
  31   16   41 1
  32   20   24 1
  33   20   42 1
  34   20   43 1
  35   21   22 1
  36   21   44 1
  37   21   45 1
  38   22   23 1
  39   22   46 1
  40   22   47 1
  41   23   24 1
  42   23   25 1
  43   24   48 1
  44   24   49 1
  45   25   26 1
  46   25   50 1
  47   25   51 1
  48   26   27 ar
  49   26   31 ar
  50   27   28 ar
  51   27   52 1
  52   28   29 ar
  53   28   53 1
  54   29   30 ar
  55   29   32 1
  56   30   31 ar
  57   30   33 1
  58   31   54 1

#	End of record

