#	Name: ASD05720235
#	Creating user name:	WinNT
#	Creation time:	15. 06. 2019 21:02

#	Modifying user name:	WinNT
#	Modification time:	15. 06. 2019 21:02

#	Program:	/corina/corina34_cracker 3.40 0067  02.08.2006

@<TRIPOS>MOLECULE
ASD05720235
  75   78    0    0    0
SMALL
NO_CHARGES


@<TRIPOS>ATOM
   1 C1             0.5119     1.0237     1.1164 C.2     
   2 N2             0.4122    -0.2391     0.6808 N.am    
   3 C3             1.6581    -0.6134    -0.0048 C.3     
   4 C4             2.5297     0.6534     0.0955 C.3     
   5 N5             1.6824     1.6071     0.8271 N.am    
   6 O6            -0.3811     1.5906     1.7157 O.2     
   7 C7             2.0587     2.9775     1.1828 C.3     
   8 N8             2.8552     3.9879     5.2588 N.3     
   9 C9             3.8612     4.4012     4.2721 C.3     
  10 C10            3.2402     4.3907     2.8735 C.3     
  11 C11            2.7352     2.9806     2.5552 C.3     
  12 C12            1.7251     2.5553     3.6245 C.3     
  13 C13            2.3900     2.6191     5.0014 C.3     
  14 C14            3.3746     4.1189     6.6267 C.3     
  15 C15            1.3818    -0.9606    -1.4691 C.3     
  16 C16            0.5224    -2.2245    -1.5402 C.3     
  17 C17            0.6398     0.1989    -2.1369 C.3     
  18 C18           -1.6777    -3.1432     0.6616 C.2     
  19 N19           -0.6243    -2.3358     0.5052 N.2     
  20 C20           -0.6921    -1.0636     0.8498 C.2     
  21 C21           -1.8851    -0.5415     1.3899 C.2     
  22 C22           -2.9529    -1.3559     1.5495 C.2     
  23 N23           -2.8521    -2.6692     1.1832 N.pl3   
  24 N24           -3.7635    -3.7303     1.2264 N.2     
  25 C25           -3.1917    -4.8117     0.7572 C.2     
  26 C26           -1.8787    -4.5017     0.3809 C.2     
  27 C27           -0.8887    -5.4340    -0.2021 C.ar    
  28 C28           -0.6495    -6.6683     0.4061 C.ar    
  29 C29            0.2709    -7.5357    -0.1361 C.ar    
  30 C30            0.9660    -7.1817    -1.2952 C.ar    
  31 C31            0.7265    -5.9469    -1.9034 C.ar    
  32 C32           -0.1978    -5.0820    -1.3637 C.ar    
  33 C33            1.9546    -8.1127    -1.8773 C.2     
  34 N34            2.2691    -9.2981    -1.4023 N.2     
  35 C35            3.1993    -9.8554    -2.1866 C.2     
  36 C36            3.4819    -8.9974    -3.1875 C.2     
  37 N37            2.6937    -7.8922    -3.0033 N.pl3   
  38 H38            2.1382    -1.4495     0.5036 H       
  39 H39            3.4427     0.4464     0.6538 H       
  40 H40            2.7657     1.0352    -0.8978 H       
  41 H41            2.7493     3.3700     0.4365 H       
  42 H42            1.1662     3.6023     1.2162 H       
  43 H43            4.2090     5.4071     4.5075 H       
  44 H44            4.7035     3.7099     4.3008 H       
  45 H45            2.4065     5.0920     2.8402 H       
  46 H46            3.9915     4.6824     2.1395 H       
  47 H47            3.5749     2.2857     2.5490 H       
  48 H48            0.8675     3.2278     3.6030 H       
  49 H49            1.3939     1.5358     3.4272 H       
  50 H50            3.2392     1.9361     5.0266 H       
  51 H51            1.6693     2.3305     5.7665 H       
  52 H52            3.6429     5.1583     6.8155 H       
  53 H53            2.6095     3.8063     7.3373 H       
  54 H54            4.2568     3.4892     6.7422 H       
  55 H55            2.3258    -1.1336    -1.9858 H       
  56 H56           -0.4947    -1.9904    -1.2258 H       
  57 H57            0.5094    -2.5979    -2.5641 H       
  58 H58            0.9403    -2.9855    -0.8812 H       
  59 H59            1.2520     1.0993    -2.0863 H       
  60 H60            0.4430    -0.0485    -3.1801 H       
  61 H61           -0.3042     0.3718    -1.6202 H       
  62 H62           -1.9455     0.4988     1.6738 H       
  63 H63           -3.8748    -0.9732     1.9620 H       
  64 H64           -3.6577    -5.7821     0.6710 H       
  65 H65           -1.1866    -6.9418     1.3023 H       
  66 H66            0.4561    -8.4901     0.3344 H       
  67 H67            1.2640    -5.6728    -2.7991 H       
  68 H68           -0.3862    -4.1293    -1.8363 H       
  69 H69            3.6477   -10.8272    -2.0422 H       
  70 H70            4.1921    -9.1537    -3.9860 H       
  71 H71            2.6672    -7.1021    -3.5655 H       
  72 Cl72           9.7035    10.4071    12.3373 Cl      
  73 H73            9.7035    11.7771    12.3373 H       
  74 Cl74          14.7035    16.7771    17.3373 Cl      
  75 H75           14.7035    18.1471    17.3373 H       
@<TRIPOS>BOND
   1    1    2 am
   2    1    5 am
   3    1    6 2
   4    2    3 1
   5    2   20 1
   6    3    4 1
   7    3   15 1
   8    3   38 1
   9    4    5 1
  10    4   39 1
  11    4   40 1
  12    5    7 1
  13    7   11 1
  14    7   41 1
  15    7   42 1
  16    8    9 1
  17    8   13 1
  18    8   14 1
  19    9   10 1
  20    9   43 1
  21    9   44 1
  22   10   11 1
  23   10   45 1
  24   10   46 1
  25   11   12 1
  26   11   47 1
  27   12   13 1
  28   12   48 1
  29   12   49 1
  30   13   50 1
  31   13   51 1
  32   14   52 1
  33   14   53 1
  34   14   54 1
  35   15   16 1
  36   15   17 1
  37   15   55 1
  38   16   56 1
  39   16   57 1
  40   16   58 1
  41   17   59 1
  42   17   60 1
  43   17   61 1
  44   18   19 1
  45   18   23 1
  46   18   26 2
  47   19   20 2
  48   20   21 1
  49   21   22 2
  50   21   62 1
  51   22   23 1
  52   22   63 1
  53   23   24 1
  54   24   25 2
  55   25   26 1
  56   25   64 1
  57   26   27 1
  58   27   28 ar
  59   27   32 ar
  60   28   29 ar
  61   28   65 1
  62   29   30 ar
  63   29   66 1
  64   30   31 ar
  65   30   33 1
  66   31   32 ar
  67   31   67 1
  68   32   68 1
  69   33   34 2
  70   33   37 1
  71   34   35 1
  72   35   36 2
  73   35   69 1
  74   36   37 1
  75   36   70 1
  76   37   71 1
  77   72   73 1
  78   74   75 1

#	End of record

