#	Name: ASD07930319
#	Creating user name:	WinNT
#	Creation time:	15. 06. 2019 21:12

#	Modifying user name:	WinNT
#	Modification time:	15. 06. 2019 21:12

#	Program:	/corina/corina34_cracker 3.40 0067  02.08.2006

@<TRIPOS>MOLECULE
ASD07930319
  34   35    0    0    0
SMALL
NO_CHARGES


@<TRIPOS>ATOM
   1 N1            -0.0119     1.4568     0.1311 N.pl3   
   2 C2             0.0021    -0.0041     0.0020 C.3     
   3 C3             0.8082    -0.6068     1.1609 C.3     
   4 S4             2.4724     0.1311     1.1434 S.o2    
   5 N5             2.1492     1.7633     1.0534 N.am    
   6 C6             1.1769     2.1573     0.1452 C.2     
   7 C7            -1.4107    -0.5268     0.0464 C.ar    
   8 C8            -1.6486    -1.8867    -0.0467 C.ar    
   9 N9             1.3799     3.1556    -0.6679 N.2     
  10 C10            2.8566     2.7343     1.8918 C.3     
  11 O11            3.1122    -0.0378     2.4009 O.2     
  12 O12            3.1440    -0.1679    -0.0726 O.2     
  13 C13            0.6503    -0.3933    -1.3281 C.3     
  14 C14           -2.4685     0.3515     0.1857 C.ar    
  15 C15           -3.7647    -0.1279     0.2263 C.ar    
  16 C16           -4.0033    -1.4858     0.1277 C.ar    
  17 C17           -2.9457    -2.3658    -0.0059 C.ar    
  18 Cl18          -0.3199    -2.9912    -0.2150 Cl      
  19 N19           -4.8972     0.8133     0.3760 N.pl3   
  20 O20           -4.6872     2.0099     0.4633 O.2     
  21 O21           -6.0392     0.3913     0.4119 O.2     
  22 H22           -0.8556     1.9302     0.2024 H       
  23 H23            0.3162    -0.3814     2.1070 H       
  24 H24            0.8837    -1.6867     1.0334 H       
  25 H25            2.2218     3.6367    -0.6445 H       
  26 H26            3.7520     3.0777     1.3735 H       
  27 H27            2.2045     3.5844     2.0924 H       
  28 H28            3.1398     2.2635     2.8331 H       
  29 H29            1.6726    -0.0164    -1.3581 H       
  30 H30            0.6604    -1.4791    -1.4234 H       
  31 H31            0.0797     0.0383    -2.1504 H       
  32 H32           -2.2826     1.4126     0.2631 H       
  33 H33           -5.0160    -1.8597     0.1595 H       
  34 H34           -3.1322    -3.4267    -0.0830 H       
@<TRIPOS>BOND
   1    1    2 1
   2    1    6 1
   3    1   22 1
   4    2    3 1
   5    2    7 1
   6    2   13 1
   7    3    4 1
   8    3   23 1
   9    3   24 1
  10    4    5 am
  11    4   11 2
  12    4   12 2
  13    5    6 1
  14    5   10 1
  15    6    9 2
  16    7   14 ar
  17    7    8 ar
  18    8   18 1
  19    8   17 ar
  20    9   25 1
  21   10   26 1
  22   10   27 1
  23   10   28 1
  24   13   29 1
  25   13   30 1
  26   13   31 1
  27   14   15 ar
  28   14   32 1
  29   15   16 ar
  30   15   19 1
  31   16   17 ar
  32   16   33 1
  33   17   34 1
  34   19   20 2
  35   19   21 2

#	End of record

