#	Name: ASD01813168
#	Creating user name:	WinNT
#	Creation time:	15. 06. 2019 19:29

#	Modifying user name:	WinNT
#	Modification time:	15. 06. 2019 19:29

#	Program:	/corina/corina34_cracker 3.40 0067  02.08.2006

@<TRIPOS>MOLECULE
ASD01813168
  62   65    0    0    0
SMALL
NO_CHARGES


@<TRIPOS>ATOM
   1 C1             2.8590     6.4062    -4.2776 C.2     
   2 C2             2.8601     5.2367    -3.5054 C.2     
   3 C3             4.0021     4.4967    -3.4092 C.2     
   4 C4             5.1581     4.9197    -4.0860 C.2     
   5 N5             5.1288     6.0661    -4.8328 N.am    
   6 C6             3.9816     6.7974    -4.9219 C.2     
   7 C7             6.3331     4.1610    -3.9887 C.2     
   8 C8             7.4617     4.5633    -4.6419 C.2     
   9 C9             7.4278     5.7424    -5.4093 C.2     
  10 C10            6.2311     6.4838    -5.4873 C.2     
  11 O11            6.1926     7.5065    -6.1503 O.2     
  12 C12            8.6255     6.1962    -6.1196 C.2     
  13 O13            8.5864     7.3273    -6.8536 O.3     
  14 O14            9.6555     5.5530    -6.0477 O.2     
  15 C15            6.3498     2.9011    -3.1620 C.3     
  16 N16            6.0909     1.7435    -4.0284 N.3     
  17 C17            6.3318     0.4850    -3.3111 C.3     
  18 C18            6.1945    -0.6909    -4.2810 C.3     
  19 C19            4.7871    -0.6868    -4.8842 C.3     
  20 C20            4.5440     0.6533    -5.5837 C.3     
  21 C21            4.7292     1.7902    -4.5761 C.3     
  22 C22            4.6650    -1.8068    -5.8851 C.ar    
  23 C23            3.7178    -2.7971    -5.7005 C.ar    
  24 C24            3.6039    -3.8249    -6.6165 C.ar    
  25 C25            4.4407    -3.8628    -7.7224 C.ar    
  26 C26            5.3903    -2.8680    -7.9053 C.ar    
  27 C27            5.4964    -1.8394    -6.9893 C.ar    
  28 O28            4.3309    -4.8731    -8.6247 O.3     
  29 C29            5.1409    -4.7853    -9.7987 C.3     
  30 C30            6.6183    -4.8360    -9.4039 C.3     
  31 C31            4.8209    -5.9579   -10.7280 C.3     
  32 C32            4.8510    -3.4681   -10.5211 C.3     
  33 H33            1.9573     6.9946    -4.3620 H       
  34 H34            1.9639     4.9239    -2.9903 H       
  35 H35            4.0174     3.5934    -2.8173 H       
  36 H36            3.9694     7.7006    -5.5140 H       
  37 H37            8.3703     3.9839    -4.5704 H       
  38 H38            9.4017     7.5865    -7.3043 H       
  39 H39            7.3255     2.7899    -2.6889 H       
  40 H40            5.5783     2.9601    -2.3942 H       
  41 H41            7.3375     0.4934    -2.8907 H       
  42 H42            5.6032     0.3798    -2.5073 H       
  43 H43            6.9321    -0.5936    -5.0776 H       
  44 H44            6.3580    -1.6257    -3.7449 H       
  45 H45            4.0509    -0.8231    -4.0920 H       
  46 H46            5.2556     0.7717    -6.4008 H       
  47 H47            3.5283     0.6788    -5.9785 H       
  48 H48            4.0080     1.6789    -3.7664 H       
  49 H49            4.5708     2.7466    -5.0745 H       
  50 H50            3.0668    -2.7673    -4.8393 H       
  51 H51            2.8641    -4.5983    -6.4718 H       
  52 H52            6.0429    -2.8954    -8.7653 H       
  53 H53            6.2354    -1.0647    -7.1312 H       
  54 H54            6.9153    -5.8719    -9.2401 H       
  55 H55            7.2228    -4.4067   -10.2028 H       
  56 H56            6.7692    -4.2655    -8.4874 H       
  57 H57            3.7684    -5.9218   -11.0092 H       
  58 H58            5.4388    -5.8909   -11.6234 H       
  59 H59            5.0275    -6.8962   -10.2133 H       
  60 H60            4.8779    -2.6472    -9.8045 H       
  61 H61            5.6041    -3.3028   -11.2915 H       
  62 H62            3.8643    -3.5160   -10.9818 H       
@<TRIPOS>BOND
   1    1    2 1
   2    1    6 2
   3    1   33 1
   4    2    3 2
   5    2   34 1
   6    3    4 1
   7    3   35 1
   8    4    5 1
   9    4    7 2
  10    5    6 1
  11    5   10 am
  12    6   36 1
  13    7    8 1
  14    7   15 1
  15    8    9 2
  16    8   37 1
  17    9   10 1
  18    9   12 1
  19   10   11 2
  20   12   13 1
  21   12   14 2
  22   13   38 1
  23   15   16 1
  24   15   39 1
  25   15   40 1
  26   16   17 1
  27   16   21 1
  28   17   18 1
  29   17   41 1
  30   17   42 1
  31   18   19 1
  32   18   43 1
  33   18   44 1
  34   19   20 1
  35   19   22 1
  36   19   45 1
  37   20   21 1
  38   20   46 1
  39   20   47 1
  40   21   48 1
  41   21   49 1
  42   22   23 ar
  43   22   27 ar
  44   23   24 ar
  45   23   50 1
  46   24   25 ar
  47   24   51 1
  48   25   26 ar
  49   25   28 1
  50   26   27 ar
  51   26   52 1
  52   27   53 1
  53   28   29 1
  54   29   30 1
  55   29   31 1
  56   29   32 1
  57   30   54 1
  58   30   55 1
  59   30   56 1
  60   31   57 1
  61   31   58 1
  62   31   59 1
  63   32   60 1
  64   32   61 1
  65   32   62 1

#	End of record

