#	Name: ASD03730398
#	Creating user name:	WinNT
#	Creation time:	15. 06. 2019 20:44

#	Modifying user name:	WinNT
#	Modification time:	15. 06. 2019 20:44

#	Program:	/corina/corina34_cracker 3.40 0067  02.08.2006

@<TRIPOS>MOLECULE
ASD03730398
  70   75    0    0    0
SMALL
NO_CHARGES


@<TRIPOS>ATOM
   1 C1            -0.0197     1.4745     0.0032 C.2     
   2 C2             0.0049    -0.0037     0.0091 C.ar    
   3 C3             1.2168    -0.6851    -0.1143 C.ar    
   4 C4             1.2327    -2.0646    -0.1075 C.ar    
   5 C5             0.0509    -2.7725     0.0207 C.ar    
   6 C6            -1.1538    -2.1032     0.1435 C.ar    
   7 C7            -1.1831    -0.7239     0.1440 C.ar    
   8 O8             0.8912     2.0996     0.5103 O.2     
   9 N9            -1.0493     2.1291    -0.5694 N.am    
  10 C10            0.0759    -4.2793     0.0263 C.3     
  11 O11           -1.4427    -1.4702     6.4679 O.3     
  12 C12           -1.5339    -1.5405     7.9031 C.3     
  13 O13           -2.0072    -2.8775     8.1509 O.3     
  14 C14           -1.5789    -3.6201     7.0879 C.ar    
  15 C15           -1.2328    -2.7542     6.0530 C.ar    
  16 C16           -1.4532    -4.9871     6.9172 C.ar    
  17 C17           -0.9838    -5.5073     5.7148 C.ar    
  18 C18           -0.6492    -4.6327     4.6855 C.ar    
  19 C19           -0.7675    -3.2689     4.8547 C.ar    
  20 O20           -0.7712    -6.8042     5.3498 O.3     
  21 C21           -0.2094    -5.4845     3.5249 C.3     
  22 C22           -0.6957    -6.8873     3.9136 C.3     
  23 N23            0.2286    -4.7601     1.4017 N.am    
  24 C24           -0.8051    -5.0255     2.2252 C.2     
  25 C25            1.2757    -5.4445     3.3179 C.ar    
  26 C26            2.3562    -5.7436     4.1175 C.ar    
  27 C27            3.6418    -5.6026     3.6263 C.ar    
  28 C28            3.8391    -5.1601     2.3309 C.ar    
  29 C29            2.7601    -4.8583     1.5264 C.ar    
  30 C30            1.4624    -4.9976     2.0123 C.ar    
  31 O31           -1.9850    -4.9155     1.9669 O.2     
  32 C32           -2.0833     1.3813    -1.2891 C.3     
  33 C33           -1.1345     3.5884    -0.4721 C.3     
  34 C34           -0.4055     4.2220    -1.6587 C.3     
  35 C35           -0.4945     5.7461    -1.5572 C.3     
  36 C36            0.2344     6.3797    -2.7438 C.3     
  37 C37            0.1454     7.9037    -2.6422 C.3     
  38 C38            0.8744     8.5374    -3.8288 C.3     
  39 H39            2.1399    -0.1337    -0.2152 H       
  40 H40            2.1698    -2.5930    -0.2029 H       
  41 H41           -2.0727    -2.6617     0.2432 H       
  42 H42           -2.1236    -0.2026     0.2443 H       
  43 H43           -0.8568    -4.6597    -0.3901 H       
  44 H44            0.9131    -4.6310    -0.5766 H       
  45 H45           -0.5542    -1.3908     8.3569 H       
  46 H46           -2.2469    -0.8062     8.2779 H       
  47 H47           -1.7212    -5.6551     7.7224 H       
  48 H48           -0.4969    -2.6009     4.0504 H       
  49 H49            0.0247    -7.6456     3.6070 H       
  50 H50           -1.6776    -7.0890     3.4853 H       
  51 H51            2.1998    -6.0889     5.1288 H       
  52 H52            4.4895    -5.8380     4.2528 H       
  53 H53            4.8427    -5.0499     1.9476 H       
  54 H54            2.9222    -4.5127     0.5161 H       
  55 H55           -2.8378     1.0338    -0.5834 H       
  56 H56           -2.5504     2.0293    -2.0307 H       
  57 H57           -1.6309     0.5246    -1.7885 H       
  58 H58           -2.1810     3.8928    -0.4840 H       
  59 H59           -0.6706     3.9183     0.4574 H       
  60 H60            0.6410     3.9176    -1.6469 H       
  61 H61           -0.8694     3.8922    -2.5883 H       
  62 H62           -1.5411     6.0505    -1.5690 H       
  63 H63           -0.0307     6.0759    -0.6276 H       
  64 H64            1.2810     6.0753    -2.7319 H       
  65 H65           -0.2295     6.0498    -3.6733 H       
  66 H66           -0.9011     8.2082    -2.6540 H       
  67 H67            0.6093     8.2336    -1.7126 H       
  68 H68            0.4105     8.2075    -4.7584 H       
  69 H69            0.8110     9.6231    -3.7564 H       
  70 H70            1.9209     8.2330    -3.8170 H       
@<TRIPOS>BOND
   1    1    2 1
   2    1    8 2
   3    1    9 am
   4    2    3 ar
   5    2    7 ar
   6    3    4 ar
   7    3   39 1
   8    4    5 ar
   9    4   40 1
  10    5    6 ar
  11    5   10 1
  12    6    7 ar
  13    6   41 1
  14    7   42 1
  15    9   32 1
  16    9   33 1
  17   10   23 1
  18   10   43 1
  19   10   44 1
  20   11   12 1
  21   11   15 1
  22   12   13 1
  23   12   45 1
  24   12   46 1
  25   13   14 1
  26   14   15 ar
  27   14   16 ar
  28   15   19 ar
  29   16   17 ar
  30   16   47 1
  31   17   18 ar
  32   17   20 1
  33   18   19 ar
  34   18   21 1
  35   19   48 1
  36   20   22 1
  37   21   22 1
  38   21   24 1
  39   21   25 1
  40   22   49 1
  41   22   50 1
  42   23   24 am
  43   23   30 1
  44   24   31 2
  45   25   26 ar
  46   25   30 ar
  47   26   27 ar
  48   26   51 1
  49   27   28 ar
  50   27   52 1
  51   28   29 ar
  52   28   53 1
  53   29   30 ar
  54   29   54 1
  55   32   55 1
  56   32   56 1
  57   32   57 1
  58   33   34 1
  59   33   58 1
  60   33   59 1
  61   34   35 1
  62   34   60 1
  63   34   61 1
  64   35   36 1
  65   35   62 1
  66   35   63 1
  67   36   37 1
  68   36   64 1
  69   36   65 1
  70   37   38 1
  71   37   66 1
  72   37   67 1
  73   38   68 1
  74   38   69 1
  75   38   70 1

#	End of record

