#	Name: ASD01881352
#	Creating user name:	WinNT
#	Creation time:	15. 06. 2019 19:42

#	Modifying user name:	WinNT
#	Modification time:	15. 06. 2019 19:42

#	Program:	/corina/corina34_cracker 3.40 0067  02.08.2006

@<TRIPOS>MOLECULE
ASD01881352
  61   63    0    0    0
SMALL
NO_CHARGES


@<TRIPOS>ATOM
   1 C1            -0.0179     1.4705     0.0101 C.2     
   2 C2             0.0021    -0.0041     0.0020 C.ar    
   3 C3             1.2212    -0.6885    -0.0133 C.ar    
   4 C4             1.2351    -2.0659    -0.0203 C.ar    
   5 C5             0.0383    -2.7753    -0.0127 C.ar    
   6 C6            -1.1750    -2.0982     0.0020 C.ar    
   7 C7            -1.1975    -0.7212     0.0155 C.ar    
   8 O8             1.0260     2.0923     0.0035 O.2     
   9 O9            -1.1939     2.1283     0.0193 O.3     
  10 O10            0.0558    -4.1324    -0.0201 O.3     
  11 C11           -1.2089    -4.7976    -0.0116 C.3     
  12 C12           -0.9888    -6.3117    -0.0218 C.3     
  13 C13           -2.3429    -7.0239    -0.0127 C.3     
  14 C14           -2.1228    -8.5380    -0.0229 C.3     
  15 O15           -3.3875    -9.2032    -0.0144 O.3     
  16 C16           -3.3700   -10.5598    -0.0218 C.ar    
  17 C17           -4.5648   -11.2657    -0.0142 C.ar    
  18 C18           -4.5493   -12.6494    -0.0222 C.ar    
  19 C19           -3.3184   -13.3305    -0.0381 C.ar    
  20 C20           -2.1220   -12.6009    -0.0456 C.ar    
  21 C21           -2.1534   -11.2366    -0.0429 C.ar    
  22 C22           -5.8777   -10.5262     0.0033 C.3     
  23 O23           -5.7135   -13.3447    -0.0143 O.3     
  24 C24           -3.2875   -14.7951    -0.0462 C.2     
  25 O25           -4.3253   -15.4238    -0.0393 O.2     
  26 C26           -1.9669   -15.5208    -0.0632 C.3     
  27 C27           -2.2147   -17.0306    -0.0688 C.3     
  28 C28           -0.8802   -17.7832    -0.2121 C.3     
  29 C29           -0.7277   -18.6544     1.0518 C.3     
  30 C30           -2.1792   -18.8500     1.5558 C.3     
  31 C31           -2.8265   -17.4707     1.2772 C.3     
  32 Cl32           2.7477    -2.9176    -0.0394 Cl      
  33 H33            2.1504    -0.1381    -0.0199 H       
  34 H34           -2.1018    -2.6526     0.0072 H       
  35 H35           -2.1411    -0.1960     0.0315 H       
  36 H36           -1.1564     3.0945     0.0244 H       
  37 H37           -1.7611    -4.5168     0.8852 H       
  38 H38           -1.7781    -4.5073    -0.8947 H       
  39 H39           -0.4366    -6.5925    -0.9186 H       
  40 H40           -0.4196    -6.6021     0.8612 H       
  41 H41           -2.8951    -6.7431     0.8841 H       
  42 H42           -2.9121    -6.7336    -0.8957 H       
  43 H43           -1.5706    -8.8188    -0.9197 H       
  44 H44           -1.5536    -8.8284     0.8601 H       
  45 H45           -1.1743   -13.1187    -0.0578 H       
  46 H46           -1.2288   -10.6785    -0.0532 H       
  47 H47           -6.2045   -10.3417    -1.0200 H       
  48 H48           -6.6259   -11.1264     0.5210 H       
  49 H49           -5.7524    -9.5756     0.5217 H       
  50 H50           -6.0602   -13.5413    -0.8954 H       
  51 H51           -1.4099   -15.2407    -0.9573 H       
  52 H52           -1.3922   -15.2502     0.8226 H       
  53 H53           -2.8829   -17.2960    -0.8881 H       
  54 H54           -0.9011   -18.4145    -1.1004 H       
  55 H55           -0.0561   -17.0729    -0.2777 H       
  56 H56           -0.2783   -19.6153     0.8009 H       
  57 H57           -0.1299   -18.1369     1.8020 H       
  58 H58           -2.6823   -19.6341     0.9899 H       
  59 H59           -2.1909   -19.0738     2.6225 H       
  60 H60           -2.5677   -16.7620     2.0638 H       
  61 H61           -3.9088   -17.5677     1.1908 H       
@<TRIPOS>BOND
   1    1    2 1
   2    1    8 2
   3    1    9 1
   4    2    3 ar
   5    2    7 ar
   6    3    4 ar
   7    3   33 1
   8    4    5 ar
   9    4   32 1
  10    5    6 ar
  11    5   10 1
  12    6    7 ar
  13    6   34 1
  14    7   35 1
  15    9   36 1
  16   10   11 1
  17   11   12 1
  18   11   37 1
  19   11   38 1
  20   12   13 1
  21   12   39 1
  22   12   40 1
  23   13   14 1
  24   13   41 1
  25   13   42 1
  26   14   15 1
  27   14   43 1
  28   14   44 1
  29   15   16 1
  30   16   17 ar
  31   16   21 ar
  32   17   18 ar
  33   17   22 1
  34   18   19 ar
  35   18   23 1
  36   19   20 ar
  37   19   24 1
  38   20   21 ar
  39   20   45 1
  40   21   46 1
  41   22   47 1
  42   22   48 1
  43   22   49 1
  44   23   50 1
  45   24   25 2
  46   24   26 1
  47   26   27 1
  48   26   51 1
  49   26   52 1
  50   27   28 1
  51   27   31 1
  52   27   53 1
  53   28   29 1
  54   28   54 1
  55   28   55 1
  56   29   30 1
  57   29   56 1
  58   29   57 1
  59   30   31 1
  60   30   58 1
  61   30   59 1
  62   31   60 1
  63   31   61 1

#	End of record

