#	Name: ASD03430253
#	Creating user name:	WinNT
#	Creation time:	15. 06. 2019 20:40

#	Modifying user name:	WinNT
#	Modification time:	15. 06. 2019 20:40

#	Program:	/corina/corina34_cracker 3.40 0067  02.08.2006

@<TRIPOS>MOLECULE
ASD03430253
  49   54    0    0    0
SMALL
NO_CHARGES


@<TRIPOS>ATOM
   1 C1            -0.0166     1.3763     0.0096 C.ar    
   2 C2             0.0021    -0.0041     0.0020 C.ar    
   3 C3             1.2022    -0.6835    -0.0134 C.ar    
   4 C4             2.4116     0.0075    -0.0119 C.ar    
   5 C5             2.3942     1.3976    -0.0087 C.ar    
   6 C6             1.1847     2.0827     0.0019 C.ar    
   7 O7             3.4706    -0.8504    -0.0012 O.3     
   8 C8             1.5468    -2.1486    -0.0459 C.3     
   9 C9             3.0317    -2.1526    -0.4335 C.3     
  10 C10            0.4162    -3.8554     1.0169 C.ar    
  11 C11            1.3113    -2.8199     1.2745 C.ar    
  12 C12            0.7088    -2.9082    -1.0335 C.2     
  13 N13            0.0835    -3.8799    -0.3395 N.am    
  14 O14            0.6130    -2.6900    -2.2228 O.2     
  15 C15            1.7831    -2.6026     2.5494 C.ar    
  16 C16            1.3689    -3.4156     3.5898 C.ar    
  17 C17            0.4798    -4.4462     3.3458 C.ar    
  18 C18            0.0040    -4.6678     2.0699 C.ar    
  19 C19            1.1727     3.5669     0.0045 C.2     
  20 C20           -0.8381    -4.8486    -0.9381 C.3     
  21 C21           -2.2415    -4.3013    -0.8926 C.ar    
  22 N22           -2.9702    -4.4657     0.1943 N.ar    
  23 C23           -2.7478    -3.6282    -1.9880 C.ar    
  24 C24           -4.0403    -3.1285    -1.9359 C.ar    
  25 C25           -4.7778    -3.3257    -0.7787 C.ar    
  26 C26           -4.2024    -4.0041     0.2793 C.ar    
  27 N27            0.0782     4.3607     0.0140 N.2     
  28 C28            0.5341     5.5886     0.0127 C.2     
  29 O29            1.8686     5.5128     0.0027 O.3     
  30 N30            2.2187     4.3516     0.0038 N.2     
  31 C31           -0.2909     6.8497     0.0209 C.3     
  32 H32           -0.9577     1.9062     0.0170 H       
  33 H33           -0.9272    -0.5544     0.0085 H       
  34 H34            3.3238     1.9473    -0.0143 H       
  35 H35            3.1501    -2.2629    -1.5114 H       
  36 H36            3.5685    -2.9382     0.0983 H       
  37 H37            2.4773    -1.7970     2.7377 H       
  38 H38            1.7395    -3.2459     4.5899 H       
  39 H39            0.1567    -5.0808     4.1577 H       
  40 H40           -0.6908    -5.4742     1.8872 H       
  41 H41           -0.5522    -5.0299    -1.9742 H       
  42 H42           -0.7947    -5.7841    -0.3803 H       
  43 H43           -2.1445    -3.4927    -2.8734 H       
  44 H44           -4.4623    -2.5980    -2.7767 H       
  45 H45           -5.7875    -2.9498    -0.7030 H       
  46 H46           -4.7704    -4.1622     1.1842 H       
  47 H47           -0.4822     7.1520     1.0505 H       
  48 H48            0.2512     7.6418    -0.4956 H       
  49 H49           -1.2383     6.6674    -0.4863 H       
@<TRIPOS>BOND
   1    1    2 ar
   2    1    6 ar
   3    1   32 1
   4    2    3 ar
   5    2   33 1
   6    3    4 ar
   7    3    8 1
   8    4    5 ar
   9    4    7 1
  10    5    6 ar
  11    5   34 1
  12    6   19 1
  13    7    9 1
  14    8    9 1
  15    8   11 1
  16    8   12 1
  17    9   35 1
  18    9   36 1
  19   10   11 ar
  20   10   13 1
  21   10   18 ar
  22   11   15 ar
  23   12   13 am
  24   12   14 2
  25   13   20 1
  26   15   16 ar
  27   15   37 1
  28   16   17 ar
  29   16   38 1
  30   17   18 ar
  31   17   39 1
  32   18   40 1
  33   19   27 1
  34   19   30 2
  35   20   21 1
  36   20   41 1
  37   20   42 1
  38   21   22 ar
  39   21   23 ar
  40   22   26 ar
  41   23   24 ar
  42   23   43 1
  43   24   25 ar
  44   24   44 1
  45   25   26 ar
  46   25   45 1
  47   26   46 1
  48   27   28 2
  49   28   29 1
  50   28   31 1
  51   29   30 1
  52   31   47 1
  53   31   48 1
  54   31   49 1

#	End of record

