#	Name: ASD01230079
#	Creating user name:	WinNT
#	Creation time:	15. 06. 2019 19:11

#	Modifying user name:	WinNT
#	Modification time:	15. 06. 2019 19:11

#	Program:	/corina/corina34_cracker 3.40 0067  02.08.2006

@<TRIPOS>MOLECULE
ASD01230079
  33   35    0    0    0
SMALL
NO_CHARGES


@<TRIPOS>ATOM
   1 C1            -0.0168     1.3905     0.0097 C.ar    
   2 C2             0.0021    -0.0041     0.0020 C.ar    
   3 C3            -1.2691    -0.7645     0.0096 C.2     
   4 C4            -2.1406    -0.6859    -1.0645 C.2     
   5 C5            -3.3338    -1.4168    -1.0278 C.2     
   6 N6            -3.6330    -2.1993     0.0588 N.pl3   
   7 C7            -2.7654    -2.2706     1.1162 C.2     
   8 C8            -1.6070    -1.5854     1.1111 C.2     
   9 C9             1.2221    -0.6805    -0.0133 C.ar    
  10 C10            2.4029     0.0319    -0.0207 C.ar    
  11 C11            2.3789     1.4177    -0.0126 C.ar    
  12 C12            1.1697     2.0942     0.0021 C.ar    
  13 F13            3.5383     2.1113    -0.0195 F       
  14 C14           -4.3955    -1.5410    -1.9427 C.2     
  15 C15           -5.3305    -2.4263    -1.3531 C.2     
  16 C16           -4.8439    -2.8021    -0.1555 C.2     
  17 C17           -4.5084    -0.8988    -3.2176 C.1     
  18 N18           -4.5980    -0.3894    -4.2290 N.1     
  19 C19           -3.1106    -3.1348     2.3015 C.3     
  20 F20           -2.0869    -3.0535     3.2517 F       
  21 F21           -4.3098    -2.6908     2.8689 F       
  22 F22           -3.2554    -4.4623     1.8844 F       
  23 C23            3.7215    -0.6975    -0.0372 C.3     
  24 F24            3.4911    -2.0774    -0.0424 F       
  25 F25            4.4379    -0.3400    -1.1845 F       
  26 F26            4.4597    -0.3523     1.0999 F       
  27 H27           -0.9589     1.9186     0.0170 H       
  28 H28           -1.9028    -0.0689    -1.9183 H       
  29 H29           -0.9367    -1.6558     1.9550 H       
  30 H30            1.2419    -1.7603    -0.0189 H       
  31 H31            1.1561     3.1741     0.0077 H       
  32 H32           -6.2675    -2.7430    -1.7868 H       
  33 H33           -5.3337    -3.4765     0.5314 H       
@<TRIPOS>BOND
   1    1    2 ar
   2    1   12 ar
   3    1   27 1
   4    2    3 1
   5    2    9 ar
   6    3    4 2
   7    3    8 1
   8    4    5 1
   9    4   28 1
  10    5    6 1
  11    5   14 2
  12    6    7 1
  13    6   16 1
  14    7   19 1
  15    7    8 2
  16    8   29 1
  17    9   10 ar
  18    9   30 1
  19   10   23 1
  20   10   11 ar
  21   11   12 ar
  22   11   13 1
  23   12   31 1
  24   14   15 1
  25   14   17 1
  26   15   16 2
  27   15   32 1
  28   16   33 1
  29   17   18 3
  30   19   20 1
  31   19   21 1
  32   19   22 1
  33   23   24 1
  34   23   25 1
  35   23   26 1

#	End of record

