#	Name: ASD07930720
#	Creating user name:	WinNT
#	Creation time:	15. 06. 2019 21:13

#	Modifying user name:	WinNT
#	Modification time:	15. 06. 2019 21:13

#	Program:	/corina/corina34_cracker 3.40 0067  02.08.2006

@<TRIPOS>MOLECULE
ASD07930720
  43   45    0    0    0
SMALL
NO_CHARGES


@<TRIPOS>ATOM
   1 C1            -0.0178     1.4608     0.0101 C.3     
   2 N2            -0.8289    -0.4364    -2.1465 N.2     
   3 N3             0.9055    -1.7596    -1.3083 N.pl3   
   4 C4             0.9741    -2.7999    -0.2768 C.3     
   5 C5             1.2929    -2.1501     1.0768 C.3     
   6 S6             0.0275    -0.8859     1.4156 S.o2    
   7 N7             0.0021    -0.0041     0.0020 N.am    
   8 C8             0.0002    -0.7257    -1.1832 C.2     
   9 C9             2.0736    -3.8020    -0.6341 C.3     
  10 O10           -1.2641    -1.4733     1.4938 O.2     
  11 O11            0.4822     0.0314     2.4011 O.2     
  12 C12           -0.3503    -3.5142    -0.1937 C.2     
  13 S13           -1.0123    -4.2469     1.2609 S.3     
  14 C14           -2.4484    -4.7657     0.3886 C.2     
  15 C15           -2.3592    -4.3774    -0.8967 C.2     
  16 C16           -1.1944    -3.6788    -1.2090 C.2     
  17 C17           -3.4166    -4.6640    -1.8975 C.ar    
  18 C18           -4.5602    -5.3609    -1.5223 C.ar    
  19 C19           -5.5498    -5.6261    -2.4684 C.ar    
  20 C20           -5.3862    -5.1905    -3.7853 C.ar    
  21 C21           -4.2480    -4.4994    -4.1495 C.ar    
  22 C22           -3.2677    -4.2299    -3.2146 C.ar    
  23 C23           -6.7303    -6.3434    -2.0908 C.1     
  24 N24           -7.6667    -6.9124    -1.7913 N.1     
  25 C25            2.6745    -1.4952     1.0219 C.3     
  26 H26            1.0048     1.8381     0.0023 H       
  27 H27           -0.5450     1.8219    -0.8730 H       
  28 H28           -0.5280     1.8123     0.9069 H       
  29 H29           -0.8163    -0.9515    -2.9683 H       
  30 H30            1.4984    -1.7960    -2.0752 H       
  31 H31            1.2753    -2.9070     1.8610 H       
  32 H32            3.0314    -3.2851    -0.6924 H       
  33 H33            2.1240    -4.5749     0.1329 H       
  34 H34            1.8487    -4.2601    -1.5972 H       
  35 H35           -3.2748    -5.3125     0.8183 H       
  36 H36           -0.9889    -3.3063    -2.2016 H       
  37 H37           -4.6811    -5.6956    -0.5026 H       
  38 H38           -6.1511    -5.3950    -4.5199 H       
  39 H39           -4.1252    -4.1646    -5.1690 H       
  40 H40           -2.3797    -3.6888    -3.5061 H       
  41 H41            2.6843    -0.7321     0.2437 H       
  42 H42            2.8970    -1.0352     1.9847 H       
  43 H43            3.4266    -2.2519     0.7983 H       
@<TRIPOS>BOND
   1    1    7 1
   2    1   26 1
   3    1   27 1
   4    1   28 1
   5    2    8 2
   6    2   29 1
   7    3    4 1
   8    3    8 1
   9    3   30 1
  10    4    9 1
  11    4   12 1
  12    4    5 1
  13    5    6 1
  14    5   25 1
  15    5   31 1
  16    6    7 am
  17    6   10 2
  18    6   11 2
  19    7    8 1
  20    9   32 1
  21    9   33 1
  22    9   34 1
  23   12   13 1
  24   12   16 2
  25   13   14 1
  26   14   15 2
  27   14   35 1
  28   15   16 1
  29   15   17 1
  30   16   36 1
  31   17   18 ar
  32   17   22 ar
  33   18   19 ar
  34   18   37 1
  35   19   20 ar
  36   19   23 1
  37   20   21 ar
  38   20   38 1
  39   21   22 ar
  40   21   39 1
  41   22   40 1
  42   23   24 3
  43   25   41 1
  44   25   42 1
  45   25   43 1

#	End of record

