#	Name: ASD05940103
#	Creating user name:	WinNT
#	Creation time:	15. 06. 2019 21:04

#	Modifying user name:	WinNT
#	Modification time:	15. 06. 2019 21:04

#	Program:	/corina/corina34_cracker 3.40 0067  02.08.2006

@<TRIPOS>MOLECULE
ASD05940103
  55   58    0    0    0
SMALL
NO_CHARGES


@<TRIPOS>ATOM
   1 C1             2.3548     1.4899     0.6438 C.ar    
   2 C2             2.4667     0.1140     0.6718 C.ar    
   3 C3             1.2694     2.0853     0.0148 C.ar    
   4 C4             0.2971     1.2963    -0.5855 C.ar    
   5 C5             0.4102    -0.0794    -0.5568 C.ar    
   6 C6             1.4949    -0.6736     0.0717 C.ar    
   7 O7             1.6055    -2.0286     0.1000 O.3     
   8 C8             1.7875    -2.6499    -1.0759 C.2     
   9 C9             2.0301    -4.1368    -1.1129 C.3     
  10 O10            1.7569    -2.0170    -2.1047 O.2     
  11 N11            1.1550     3.4809    -0.0135 N.am    
  12 C12            2.2593     4.2493     0.0683 C.2     
  13 C13            2.1290     5.7471     0.1716 C.3     
  14 O14            3.3578     3.7353     0.0589 O.2     
  15 C15            3.5216     6.3759     0.2507 C.3     
  16 C16            3.3893     7.8966     0.3556 C.3     
  17 C17            2.6576     8.4311    -0.8773 C.3     
  18 C18            1.2651     7.8023    -0.9563 C.3     
  19 C19            1.3973     6.2816    -1.0612 C.3     
  20 C20            0.4719     8.1596     0.3023 C.3     
  21 C21            1.3359     6.1045     1.4302 C.3     
  22 C22            1.2036     7.6251     1.5351 C.3     
  23 C23            2.5962     8.2539     1.6142 C.3     
  24 C24            2.2040    -4.5892    -2.5641 C.3     
  25 C25            2.3258    -6.1136    -2.6120 C.3     
  26 C26            3.2967    -4.4667    -0.3206 C.3     
  27 H27            3.1091     2.1028     1.1148 H       
  28 H28            3.3111    -0.3492     1.1606 H       
  29 H29           -0.5476     1.7587    -1.0745 H       
  30 H30           -0.3460    -0.6932    -1.0237 H       
  31 H31            1.1794    -4.6549    -0.6703 H       
  32 H32            0.2811     3.8944    -0.0921 H       
  33 H33            4.0428     5.9951     1.1290 H       
  34 H34            4.0866     6.1213    -0.6460 H       
  35 H35            4.3814     8.3445     0.4119 H       
  36 H36            2.5634     9.5144    -0.8026 H       
  37 H37            3.2227     8.1765    -1.7739 H       
  38 H38            0.7438     8.1831    -1.8346 H       
  39 H39            1.9624     6.0270    -1.9578 H       
  40 H40            0.4052     5.8337    -1.1175 H       
  41 H41            0.3777     9.2430     0.3770 H       
  42 H42           -0.5202     7.7117     0.2460 H       
  43 H43            0.3438     5.6565     1.3739 H       
  44 H44            1.8571     5.7237     2.3085 H       
  45 H45            0.6386     7.8797     2.4318 H       
  46 H46            3.1174     7.8731     2.4925 H       
  47 H47            2.5020     9.3373     1.6889 H       
  48 H48            1.3393    -4.2753    -3.1487 H       
  49 H49            3.1060    -4.1395    -2.9793 H       
  50 H50            3.1906    -6.4275    -2.0274 H       
  51 H51            1.4239    -6.5634    -2.1968 H       
  52 H52            2.4497    -6.4359    -3.6458 H       
  53 H53            3.1728    -4.1444     0.7133 H       
  54 H54            3.4722    -5.5422    -0.3473 H       
  55 H55            4.1475    -3.9487    -0.7632 H       
@<TRIPOS>BOND
   1    1    2 ar
   2    1    3 ar
   3    1   27 1
   4    2    6 ar
   5    2   28 1
   6    3    4 ar
   7    3   11 1
   8    4    5 ar
   9    4   29 1
  10    5    6 ar
  11    5   30 1
  12    6    7 1
  13    7    8 1
  14    8    9 1
  15    8   10 2
  16    9   24 1
  17    9   26 1
  18    9   31 1
  19   11   12 am
  20   11   32 1
  21   12   13 1
  22   12   14 2
  23   13   15 1
  24   13   21 1
  25   13   19 1
  26   15   16 1
  27   15   33 1
  28   15   34 1
  29   16   17 1
  30   16   23 1
  31   16   35 1
  32   17   18 1
  33   17   36 1
  34   17   37 1
  35   18   19 1
  36   18   20 1
  37   18   38 1
  38   19   39 1
  39   19   40 1
  40   20   22 1
  41   20   41 1
  42   20   42 1
  43   21   22 1
  44   21   43 1
  45   21   44 1
  46   22   23 1
  47   22   45 1
  48   23   46 1
  49   23   47 1
  50   24   25 1
  51   24   48 1
  52   24   49 1
  53   25   50 1
  54   25   51 1
  55   25   52 1
  56   26   53 1
  57   26   54 1
  58   26   55 1

#	End of record

