#	Name: ASD06152001
#	Creating user name:	WinNT
#	Creation time:	15. 06. 2019 21:05

#	Modifying user name:	WinNT
#	Modification time:	15. 06. 2019 21:05

#	Program:	/corina/corina34_cracker 3.40 0067  02.08.2006

@<TRIPOS>MOLECULE
ASD06152001
  80   86    0    0    0
SMALL
NO_CHARGES


@<TRIPOS>ATOM
   1 C1             0.3183     1.6628    -0.3775 C.ar    
   2 C2             0.3226     0.3051    -0.4519 C.ar    
   3 C3             1.5434    -0.3929    -0.4366 C.ar    
   4 C4             2.7575     0.3315    -0.3436 C.ar    
   5 C5             2.7274     1.7276    -0.2678 C.ar    
   6 C6             1.5142     2.3818    -0.2855 C.ar    
   7 C7             1.5810    -1.7949    -0.5114 C.ar    
   8 C8             2.7686    -2.4606    -0.4950 C.ar    
   9 C9             3.9816    -1.7927    -0.4051 C.ar    
  10 C10            4.0202    -0.4056    -0.3287 C.ar    
  11 C11           -0.9779    -0.4499    -0.5500 C.3     
  12 C12            5.3053     0.3065    -0.2337 C.2     
  13 O13            5.3314     1.5210    -0.2723 O.2     
  14 O14            6.4530    -0.3884    -0.1038 O.3     
  15 C15            7.6822     0.3794    -0.0159 C.3     
  16 C16            8.7252    -0.3743     0.8323 C.3     
  17 C17            9.6502    -0.9793    -0.2069 C.2     
  18 C18            9.4120    -0.2560    -1.4661 C.2     
  19 C19            8.3139     0.5162    -1.3793 C.2     
  20 C20           10.5099    -1.9848     0.0129 C.2     
  21 C21           10.2370    -0.3477    -2.6415 C.1     
  22 C22           11.0551    -0.6170    -3.4576 C.1     
  23 C23           12.1852    -1.3508    -4.0804 C.3     
  24 C24           12.7715    -2.4879    -3.2280 C.3     
  25 C25           11.3453    -2.4971    -1.0281 C.1     
  26 C26           12.1221    -2.6831    -1.9078 C.1     
  27 O27           11.9658    -2.7301    -4.3830 O.3     
  28 O28            9.4390     0.5321     1.6756 O.3     
  29 C29            9.8893    -0.0471     2.9018 C.3     
  30 C30           10.7425     0.9702     3.6640 C.3     
  31 C31           11.1712     0.3638     5.0036 C.3     
  32 C32            9.9218    -0.0503     5.7872 C.3     
  33 C33            9.1003    -1.0282     4.9431 C.3     
  34 O34            8.7609    -0.4127     3.6989 O.3     
  35 C35            9.9231    -2.2910     4.6800 C.3     
  36 O36           11.9902    -0.7835     4.7688 O.3     
  37 O37           10.3116    -0.6835     7.0076 O.3     
  38 N38           11.9341     1.3029     2.8719 N.3     
  39 C39           11.6421     2.3683     1.9037 C.3     
  40 C40           13.1079    -0.5350    -4.9881 C.3     
  41 C41           12.3330     0.6223    -5.6471 C.3     
  42 O42           13.0094     1.8182    -5.1607 O.3     
  43 C43           14.0126     1.4579    -4.3534 C.2     
  44 O44           14.1364     0.1351    -4.2023 O.3     
  45 O45           14.7444     2.2586    -3.8078 O.2     
  46 O46            1.4800     3.7375    -0.2120 O.3     
  47 C47            0.1921     4.3562    -0.2350 C.3     
  48 H48           -0.6220     2.1938    -0.3942 H       
  49 H49            3.6473     2.2887    -0.1962 H       
  50 H50            0.6579    -2.3509    -0.5824 H       
  51 H51            2.7664    -3.5390    -0.5532 H       
  52 H52            4.9034    -2.3555    -0.3945 H       
  53 H53           -1.2468    -0.5757    -1.5988 H       
  54 H54           -0.8657    -1.4288    -0.0838 H       
  55 H55           -1.7617     0.1085    -0.0384 H       
  56 H56            7.4845     1.3622     0.4121 H       
  57 H57            8.2477    -1.1558     1.4234 H       
  58 H58            7.9376     1.1445    -2.1730 H       
  59 H59           10.5730    -2.4178     1.0003 H       
  60 H60           13.8413    -2.6894    -3.2830 H       
  61 H61           10.4858    -0.9339     2.6875 H       
  62 H62           10.1592     1.8734     3.8430 H       
  63 H63           11.7321     1.1029     5.5757 H       
  64 H64            9.3219     0.8323     6.0092 H       
  65 H65            8.1885    -1.2932     5.4783 H       
  66 H66           10.3188    -2.6697     5.6224 H       
  67 H67            9.2883    -3.0493     4.2216 H       
  68 H68           10.7483    -2.0537     4.0086 H       
  69 H69           12.2982    -1.2186     5.5756 H       
  70 H70            9.5690    -0.9723     7.5554 H       
  71 H71           12.7057     1.5590     3.4697 H       
  72 H72           12.5413     2.5950     1.3307 H       
  73 H73           10.8537     2.0384     1.2272 H       
  74 H74           11.3147     3.2622     2.4347 H       
  75 H75           13.5591    -1.1742    -5.7470 H       
  76 H76           12.4015     0.5591    -6.7331 H       
  77 H77           11.2909     0.6157    -5.3276 H       
  78 H78           -0.3962     4.0021     0.6115 H       
  79 H79            0.3075     5.4381    -0.1701 H       
  80 H80           -0.3174     4.1003    -1.1640 H       
@<TRIPOS>BOND
   1    1    2 ar
   2    1    6 ar
   3    1   48 1
   4    2    3 ar
   5    2   11 1
   6    3    4 ar
   7    3    7 ar
   8    4    5 ar
   9    4   10 ar
  10    5    6 ar
  11    5   49 1
  12    6   46 1
  13    7    8 ar
  14    7   50 1
  15    8    9 ar
  16    8   51 1
  17    9   10 ar
  18    9   52 1
  19   10   12 1
  20   11   53 1
  21   11   54 1
  22   11   55 1
  23   12   13 2
  24   12   14 1
  25   14   15 1
  26   15   16 1
  27   15   19 1
  28   15   56 1
  29   16   17 1
  30   16   28 1
  31   16   57 1
  32   17   18 1
  33   17   20 2
  34   18   19 2
  35   18   21 1
  36   19   58 1
  37   20   25 1
  38   20   59 1
  39   21   22 3
  40   22   23 1
  41   23   27 1
  42   23   40 1
  43   23   24 1
  44   24   27 1
  45   24   26 1
  46   24   60 1
  47   25   26 3
  48   28   29 1
  49   29   30 1
  50   29   34 1
  51   29   61 1
  52   30   31 1
  53   30   38 1
  54   30   62 1
  55   31   32 1
  56   31   36 1
  57   31   63 1
  58   32   33 1
  59   32   37 1
  60   32   64 1
  61   33   34 1
  62   33   35 1
  63   33   65 1
  64   35   66 1
  65   35   67 1
  66   35   68 1
  67   36   69 1
  68   37   70 1
  69   38   39 1
  70   38   71 1
  71   39   72 1
  72   39   73 1
  73   39   74 1
  74   40   41 1
  75   40   44 1
  76   40   75 1
  77   41   42 1
  78   41   76 1
  79   41   77 1
  80   42   43 1
  81   43   44 1
  82   43   45 2
  83   46   47 1
  84   47   78 1
  85   47   79 1
  86   47   80 1

#	End of record

