#	Name: ASD00840094
#	Creating user name:	WinNT
#	Creation time:	15. 06. 2019 18:37

#	Modifying user name:	WinNT
#	Modification time:	15. 06. 2019 18:37

#	Program:	/corina/corina34_cracker 3.40 0067  02.08.2006

@<TRIPOS>MOLECULE
ASD00840094
  23   24    0    0    0
SMALL
NO_CHARGES


@<TRIPOS>ATOM
   1 C1            -0.0167     1.3793     0.0096 C.ar    
   2 C2             0.0021    -0.0041     0.0020 C.ar    
   3 C3             1.2098    -0.6789    -0.0131 C.ar    
   4 C4             2.3967     0.0292    -0.0207 C.ar    
   5 C5             2.3773     1.4115    -0.0131 C.ar    
   6 C6             1.1709     2.0863     0.0021 C.ar    
   7 C7             3.6719     2.1830    -0.0208 C.3     
   8 N8             4.0787     2.4404    -1.4044 N.pl3   
   9 C9             3.7321     3.5318    -2.1444 C.2     
  10 C10            4.2960     3.4112    -3.3633 C.2     
  11 C11            5.0172     2.2009    -3.3765 C.2     
  12 C12            4.8713     1.6310    -2.1630 C.2     
  13 Cl13          -1.4892    -0.8928     0.0121 Cl      
  14 H14           -0.9592     1.9066     0.0170 H       
  15 H15            1.2250    -1.7588    -0.0187 H       
  16 H16            3.3395    -0.4974    -0.0321 H       
  17 H17            1.1564     3.1662     0.0080 H       
  18 H18            3.5331     3.1307     0.4994 H       
  19 H19            4.4442     1.6017     0.4829 H       
  20 H20            3.1123     4.3514    -1.8118 H       
  21 H21            4.2105     4.1132    -4.1795 H       
  22 H22            5.5861     1.8047    -4.2046 H       
  23 H23            5.3023     0.6919    -1.8487 H       
@<TRIPOS>BOND
   1    1    2 ar
   2    1    6 ar
   3    1   14 1
   4    2    3 ar
   5    2   13 1
   6    3    4 ar
   7    3   15 1
   8    4    5 ar
   9    4   16 1
  10    5    6 ar
  11    5    7 1
  12    6   17 1
  13    7    8 1
  14    7   18 1
  15    7   19 1
  16    8    9 1
  17    8   12 1
  18    9   10 2
  19    9   20 1
  20   10   11 1
  21   10   21 1
  22   11   12 2
  23   11   22 1
  24   12   23 1

#	End of record

