#	Name: ASD01811014
#	Creating user name:	WinNT
#	Creation time:	15. 06. 2019 19:25

#	Modifying user name:	WinNT
#	Modification time:	15. 06. 2019 19:25

#	Program:	/corina/corina34_cracker 3.40 0067  02.08.2006

@<TRIPOS>MOLECULE
ASD01811014
  62   65    0    0    0
SMALL
NO_CHARGES


@<TRIPOS>ATOM
   1 C1            -0.0184     1.5028     0.0103 C.2     
   2 C2             0.0021    -0.0041     0.0020 C.3     
   3 O3             1.0236     2.1234     0.0037 O.2     
   4 N4            -1.1946     2.1607     0.0195 N.am    
   5 C5             1.4295    -0.4870    -0.0142 C.ar    
   6 C6             2.0956    -0.7149     1.1754 C.ar    
   7 C7             3.4050    -1.1579     1.1606 C.ar    
   8 C8             4.0481    -1.3733    -0.0440 C.ar    
   9 C9             3.3817    -1.1463    -1.2336 C.ar    
  10 C10            2.0709    -0.7075    -1.2187 C.ar    
  11 N11           -2.7269     6.0855     0.0440 N.3     
  12 C12           -2.0196     5.6623    -1.1714 C.3     
  13 C13           -1.9488     4.1342    -1.2161 C.3     
  14 C14           -1.2145     3.6256     0.0275 C.3     
  15 C15           -1.9439     4.1205     1.2795 C.3     
  16 C16           -2.0148     5.6490     1.2518 C.3     
  17 C17           -2.9355     7.5395     0.0523 C.3     
  18 C18           -3.8827     7.9123     1.1946 C.3     
  19 C19           -4.1000     9.4268     1.2033 C.3     
  20 O20           -6.6883     9.8296     4.4714 O.3     
  21 C21           -5.3704    10.1062     4.6605 C.ar    
  22 C22           -4.5025    10.0884     3.5693 C.ar    
  23 N23           -5.0069     9.7837     2.2970 N.am    
  24 C24           -6.3420     9.8247     2.0952 C.2     
  25 C25           -7.2567    10.2315     3.2223 C.3     
  26 C26           -3.1587    10.3694     3.7492 C.ar    
  27 C27           -2.6814    10.6667     5.0131 C.ar    
  28 C28           -3.5416    10.6834     6.0951 C.ar    
  29 C29           -4.8857    10.4044     5.9216 C.ar    
  30 O30           -6.8030     9.5357     1.0111 O.2     
  31 C31           -2.4532     1.4111     0.0214 C.3     
  32 H32           -0.4983    -0.3791     0.8948 H       
  33 H33           -0.5153    -0.3696    -0.8850 H       
  34 H34            1.5932    -0.5466     2.1165 H       
  35 H35            3.9256    -1.3353     2.0900 H       
  36 H36            5.0713    -1.7187    -0.0556 H       
  37 H37            3.8843    -1.3143    -2.1747 H       
  38 H38            1.5491    -0.5336    -2.1482 H       
  39 H39           -2.5545     6.0269    -2.0484 H       
  40 H40           -1.0098     6.0726    -1.1655 H       
  41 H41           -2.9583     3.7235    -1.2360 H       
  42 H42           -1.4102     3.8208    -2.1104 H       
  43 H43           -0.1922     4.0037     0.0270 H       
  44 H44           -2.9533     3.7097     1.2989 H       
  45 H45           -1.4017     3.7974     2.1682 H       
  46 H46           -1.0051     6.0594     1.2464 H       
  47 H47           -2.5462     6.0040     2.1349 H       
  48 H48           -1.9792     8.0430     0.1944 H       
  49 H49           -3.3717     7.8495    -0.8972 H       
  50 H50           -4.8390     7.4089     1.0526 H       
  51 H51           -3.4464     7.6024     2.1442 H       
  52 H52           -3.1437     9.9302     1.3453 H       
  53 H53           -4.5362     9.7367     0.2537 H       
  54 H54           -8.2267     9.7512     3.0938 H       
  55 H55           -7.3843    11.3139     3.2133 H       
  56 H56           -2.4849    10.3561     2.9053 H       
  57 H57           -1.6335    10.8862     5.1551 H       
  58 H58           -3.1632    10.9152     7.0797 H       
  59 H59           -5.5550    10.4188     6.7690 H       
  60 H60           -2.7605     1.2195     1.0495 H       
  61 H61           -3.2232     1.9925    -0.4857 H       
  62 H62           -2.3124     0.4633    -0.4983 H       
@<TRIPOS>BOND
   1    1    2 1
   2    1    3 2
   3    1    4 am
   4    2    5 1
   5    2   32 1
   6    2   33 1
   7    4   14 1
   8    4   31 1
   9    5    6 ar
  10    5   10 ar
  11    6    7 ar
  12    6   34 1
  13    7    8 ar
  14    7   35 1
  15    8    9 ar
  16    8   36 1
  17    9   10 ar
  18    9   37 1
  19   10   38 1
  20   11   12 1
  21   11   16 1
  22   11   17 1
  23   12   13 1
  24   12   39 1
  25   12   40 1
  26   13   14 1
  27   13   41 1
  28   13   42 1
  29   14   15 1
  30   14   43 1
  31   15   16 1
  32   15   44 1
  33   15   45 1
  34   16   46 1
  35   16   47 1
  36   17   18 1
  37   17   48 1
  38   17   49 1
  39   18   19 1
  40   18   50 1
  41   18   51 1
  42   19   23 1
  43   19   52 1
  44   19   53 1
  45   20   21 1
  46   20   25 1
  47   21   22 ar
  48   21   29 ar
  49   22   23 1
  50   22   26 ar
  51   23   24 am
  52   24   25 1
  53   24   30 2
  54   25   54 1
  55   25   55 1
  56   26   27 ar
  57   26   56 1
  58   27   28 ar
  59   27   57 1
  60   28   29 ar
  61   28   58 1
  62   29   59 1
  63   31   60 1
  64   31   61 1
  65   31   62 1

#	End of record

