#	Name: ASD04590831
#	Creating user name:	WinNT
#	Creation time:	15. 06. 2019 20:51

#	Modifying user name:	WinNT
#	Modification time:	15. 06. 2019 20:51

#	Program:	/corina/corina34_cracker 3.40 0067  02.08.2006

@<TRIPOS>MOLECULE
ASD04590831
  51   56    0    0    0
SMALL
NO_CHARGES


@<TRIPOS>ATOM
   1 N1            -0.0170     1.3231    -0.0113 N.ar    
   2 C2             0.0017    -0.0035    -0.0049 C.ar    
   3 N3             1.1297    -0.6949    -0.0118 N.ar    
   4 C4             2.3049    -0.0730    -0.0259 C.ar    
   5 C5             2.3189     1.3364    -0.0335 C.ar    
   6 C6             1.1072     2.0201    -0.0254 C.ar    
   7 N7             3.6030    -0.5197    -0.0364 N.pl3   
   8 C8             4.4823     0.5493    -0.0507 C.ar    
   9 C9             3.7312     1.7383    -0.0495 C.ar    
  10 C10            5.8680     0.6415    -0.0652 C.ar    
  11 N11            6.4613     1.8177    -0.0772 N.ar    
  12 C12            5.7851     2.9529    -0.0764 C.ar    
  13 C13            4.4065     2.9582    -0.0630 C.ar    
  14 N14           -1.2022    -0.6889     0.0098 N.pl3   
  15 C15           -2.3996     0.0104     0.1301 C.ar    
  16 N16           -2.3858     1.3201     0.3310 N.ar    
  17 N17           -3.4647     2.0055     0.4474 N.ar    
  18 C18           -4.6657     1.4480     0.3743 C.ar    
  19 C19           -4.7807     0.0696     0.1639 C.ar    
  20 C20           -3.6166    -0.6660     0.0335 C.ar    
  21 C21           -5.8833     2.2831     0.5156 C.ar    
  22 C22           -7.1460     1.6947     0.5442 C.ar    
  23 N23           -8.2281     2.4353     0.6701 N.ar    
  24 C24           -8.1646     3.7487     0.7733 C.ar    
  25 C25           -6.9487     4.4077     0.7528 C.ar    
  26 C26           -5.7824     3.6728     0.6281 C.ar    
  27 C27            4.0016    -1.9294    -0.0325 C.3     
  28 C28            3.4615    -2.6264     1.2286 C.3     
  29 C29            2.5281    -3.7545     0.7430 C.3     
  30 C30            3.0197    -4.0625    -0.6932 C.3     
  31 C31            3.3776    -2.6584    -1.2404 C.3     
  32 H32            1.0849     3.0999    -0.0305 H       
  33 H33            6.4644    -0.2589    -0.0664 H       
  34 H34            6.3205     3.8909    -0.0862 H       
  35 H35            3.8598     3.8897    -0.0628 H       
  36 H36           -1.2106    -1.6560    -0.0636 H       
  37 H37           -5.7489    -0.4049     0.1011 H       
  38 H38           -3.6483    -1.7331    -0.1302 H       
  39 H39           -7.2384     0.6218     0.4620 H       
  40 H40           -9.0764     4.3186     0.8749 H       
  41 H41           -6.9095     5.4836     0.8374 H       
  42 H42           -4.8194     4.1614     0.6093 H       
  43 H43            5.0881    -2.0101    -0.0673 H       
  44 H44            4.2857    -3.0460     1.8053 H       
  45 H45            2.9028    -1.9157     1.8376 H       
  46 H46            2.6306    -4.6344     1.3781 H       
  47 H47            1.4931    -3.4130     0.7269 H       
  48 H48            3.9003    -4.7043    -0.6707 H       
  49 H49            2.2245    -4.5164    -1.2847 H       
  50 H50            2.4798    -2.1398    -1.5768 H       
  51 H51            4.1001    -2.7382    -2.0526 H       
@<TRIPOS>BOND
   1    1    2 ar
   2    1    6 ar
   3    2    3 ar
   4    2   14 1
   5    3    4 ar
   6    4    5 ar
   7    4    7 1
   8    5    6 ar
   9    5    9 1
  10    6   32 1
  11    7    8 1
  12    7   27 1
  13    8    9 ar
  14    8   10 ar
  15    9   13 ar
  16   10   11 ar
  17   10   33 1
  18   11   12 ar
  19   12   13 ar
  20   12   34 1
  21   13   35 1
  22   14   15 1
  23   14   36 1
  24   15   16 ar
  25   15   20 ar
  26   16   17 ar
  27   17   18 ar
  28   18   19 ar
  29   18   21 1
  30   19   20 ar
  31   19   37 1
  32   20   38 1
  33   21   22 ar
  34   21   26 ar
  35   22   23 ar
  36   22   39 1
  37   23   24 ar
  38   24   25 ar
  39   24   40 1
  40   25   26 ar
  41   25   41 1
  42   26   42 1
  43   27   28 1
  44   27   31 1
  45   27   43 1
  46   28   29 1
  47   28   44 1
  48   28   45 1
  49   29   30 1
  50   29   46 1
  51   29   47 1
  52   30   31 1
  53   30   48 1
  54   30   49 1
  55   31   50 1
  56   31   51 1

#	End of record

