#	Name: ASD03540132
#	Creating user name:	WinNT
#	Creation time:	15. 06. 2019 20:42

#	Modifying user name:	WinNT
#	Modification time:	15. 06. 2019 20:42

#	Program:	/corina/corina34_cracker 3.40 0067  02.08.2006

@<TRIPOS>MOLECULE
ASD03540132
  50   52    0    0    0
SMALL
NO_CHARGES


@<TRIPOS>ATOM
   1 C1            -0.0180     1.4744     0.0101 C.2     
   2 C2             0.0021    -0.0041     0.0020 C.ar    
   3 C3             1.2171    -0.6858    -0.0132 C.ar    
   4 C4             1.2272    -2.0787    -0.0203 C.ar    
   5 C5             2.5119    -2.8104    -0.0360 C.2     
   6 C6             0.0206    -2.7829    -0.0121 C.ar    
   7 C7            -1.1799    -2.1012     0.0030 C.ar    
   8 C8            -1.1968    -0.7203     0.0155 C.ar    
   9 O9             1.0263     2.0964     0.0035 O.2     
  10 N10           -1.1942     2.1323     0.0193 N.am    
  11 O11            3.5609    -2.1964    -0.0428 O.2     
  12 N12            2.5199    -4.1581    -0.0429 N.am    
  13 C13            3.7929    -4.8830    -0.0584 C.3     
  14 C14            3.5262    -6.3662    -0.0634 C.ar    
  15 C15            3.3929    -7.0396    -1.2625 C.ar    
  16 C16            3.1475    -8.4048    -1.2664 C.ar    
  17 C17            3.0365    -9.0908    -0.0654 C.ar    
  18 C18            3.1706    -8.4131     1.1307 C.ar    
  19 C19            3.4209    -7.0530     1.1318 C.ar    
  20 O20            3.0155    -9.0693    -2.4445 O.3     
  21 C21            2.7638   -10.4741    -2.3723 C.3     
  22 C22           -1.2141     3.5972     0.0274 C.3     
  23 C23           -2.6415     4.0801     0.0368 C.ar    
  24 C24           -3.2903     4.2951     1.2384 C.ar    
  25 C25           -4.5995     4.7380     1.2477 C.ar    
  26 C26           -5.2608     4.9663     0.0540 C.ar    
  27 C27           -4.6109     4.7510    -1.1483 C.ar    
  28 C28           -3.2999     4.3135    -1.1562 C.ar    
  29 Cl29          -6.9053     5.5221     0.0648 Cl      
  30 H30            2.1471    -0.1367    -0.0199 H       
  31 H31            0.0269    -3.8628    -0.0180 H       
  32 H32           -2.1098    -2.6503     0.0090 H       
  33 H33           -2.1393    -0.1932     0.0318 H       
  34 H34           -2.0276     1.6360     0.0206 H       
  35 H35            1.6827    -4.6481    -0.0375 H       
  36 H36            4.3545    -4.6118    -0.9524 H       
  37 H37            4.3712    -4.6208     0.8275 H       
  38 H38            3.4793    -6.5034    -2.1960 H       
  39 H39            2.8451   -10.1537    -0.0658 H       
  40 H40            3.0840    -8.9465     2.0657 H       
  41 H41            3.5301    -6.5257     2.0679 H       
  42 H42            2.6801   -10.8805    -3.3802 H       
  43 H43            3.5856   -10.9641    -1.8501 H       
  44 H44            1.8338   -10.6493    -1.8315 H       
  45 H45           -0.7010     3.9626     0.9169 H       
  46 H46           -0.7094     3.9723    -0.8630 H       
  47 H47           -2.7742     4.1165     2.1701 H       
  48 H48           -5.1064     4.9055     2.1865 H       
  49 H49           -5.1265     4.9291    -2.0804 H       
  50 H50           -2.7911     4.1496    -2.0947 H       
@<TRIPOS>BOND
   1    1    2 1
   2    1    9 2
   3    1   10 am
   4    2    3 ar
   5    2    8 ar
   6    3    4 ar
   7    3   30 1
   8    4    5 1
   9    4    6 ar
  10    5   11 2
  11    5   12 am
  12    6    7 ar
  13    6   31 1
  14    7    8 ar
  15    7   32 1
  16    8   33 1
  17   10   22 1
  18   10   34 1
  19   12   13 1
  20   12   35 1
  21   13   14 1
  22   13   36 1
  23   13   37 1
  24   14   15 ar
  25   14   19 ar
  26   15   16 ar
  27   15   38 1
  28   16   17 ar
  29   16   20 1
  30   17   18 ar
  31   17   39 1
  32   18   19 ar
  33   18   40 1
  34   19   41 1
  35   20   21 1
  36   21   42 1
  37   21   43 1
  38   21   44 1
  39   22   23 1
  40   22   45 1
  41   22   46 1
  42   23   24 ar
  43   23   28 ar
  44   24   25 ar
  45   24   47 1
  46   25   26 ar
  47   25   48 1
  48   26   27 ar
  49   26   29 1
  50   27   28 ar
  51   27   49 1
  52   28   50 1

#	End of record

