#	Name: ASD01000141
#	Creating user name:	WinNT
#	Creation time:	15. 06. 2019 18:54

#	Modifying user name:	WinNT
#	Modification time:	15. 06. 2019 18:54

#	Program:	/corina/corina34_cracker 3.40 0067  02.08.2006

@<TRIPOS>MOLECULE
ASD01000141
  74   77    0    0    0
SMALL
NO_CHARGES


@<TRIPOS>ATOM
   1 C1             0.4110     1.7273    -0.0879 C.3     
   2 C2             0.5642     0.2911    -0.5926 C.3     
   3 C3             1.5914    -0.4455     0.2694 C.3     
   4 C4            -2.6125     3.1689    -4.9853 C.3     
   5 C5            -1.9481     1.9689    -4.3734 C.2     
   6 C6            -2.3719     1.4539    -3.2209 C.2     
   7 C7            -1.8242     0.3641    -1.2553 C.2     
   8 C8            -0.7840    -0.4269    -0.5047 C.3     
   9 C9            -0.8816    -2.8559    -0.3382 C.2     
  10 C10           -0.9271    -4.1865    -0.9638 C.2     
  11 C11           -0.5474    -4.3167    -2.4084 C.3     
  12 C12           -0.1959    -5.7327    -2.7512 C.2     
  13 C13           -4.0300     3.3455    -4.5333 C.2     
  14 C14           -4.4845     2.8317    -3.3902 C.2     
  15 C15           -3.5686     2.0318    -2.5718 C.2     
  16 C16           -3.7565     1.7916    -1.2256 C.2     
  17 C17           -2.7811     0.9994    -0.5624 C.2     
  18 C18           -0.3124    -1.9087    -2.5099 C.3     
  19 C19           -1.2953    -5.2193    -0.2303 C.2     
  20 C20           -1.3711    -6.6128    -0.7786 C.3     
  21 C21           -0.5627    -6.7476    -2.0311 C.2     
  22 C22           -0.1507    -8.1281    -2.4734 C.3     
  23 N23           -0.6656    -1.7622    -1.0956 N.am    
  24 O24           -1.7624     0.4107    -2.6047 O.3     
  25 O25           -1.0388    -2.7427     0.8624 O.2     
  26 C26           -2.8224     0.8708     0.9386 C.3     
  27 C27            1.1942    -2.1429    -2.6377 C.3     
  28 C28            1.5407    -2.4498    -4.0959 C.3     
  29 C29           -3.3216    -1.4774     1.6470 C.ar    
  30 C30           -3.7907    -0.2181     1.3230 C.ar    
  31 C31           -5.1479     0.0425     1.3521 C.ar    
  32 C32           -4.2098    -2.4762     1.9997 C.ar    
  33 C33           -5.5671    -2.2159     2.0279 C.ar    
  34 C34           -6.0361    -0.9563     1.7048 C.ar    
  35 N35            2.9872    -2.6747    -4.2186 N.3     
  36 O36           -4.8288     2.2906    -0.5631 O.3     
  37 Cl37          -1.6733     4.6424    -4.5409 Cl      
  38 H38            1.3876     2.2110    -0.0664 H       
  39 H39           -0.2525     2.2779    -0.7548 H       
  40 H40           -0.0112     1.7162     0.9169 H       
  41 H41            0.9020     0.3042    -1.6288 H       
  42 H42            1.2536    -0.4586     1.3057 H       
  43 H43            1.7006    -1.4687    -0.0901 H       
  44 H44            2.5519     0.0660     0.2069 H       
  45 H45           -2.6008     3.0618    -6.0700 H       
  46 H46           -1.1092     1.5138    -4.8790 H       
  47 H47           -1.0802    -0.5170     0.5404 H       
  48 H48           -1.3850    -3.9965    -3.0282 H       
  49 H49            0.3110    -3.6764    -2.6112 H       
  50 H50            0.3899    -5.9169    -3.6395 H       
  51 H51           -4.7083     3.9098    -5.1561 H       
  52 H52           -5.5033     3.0013    -3.0744 H       
  53 H53           -0.8492    -2.7581    -2.9323 H       
  54 H54           -0.5860    -1.0015    -3.0486 H       
  55 H55           -1.5517    -5.0548     0.8059 H       
  56 H56           -0.9922    -7.3114    -0.0326 H       
  57 H57           -2.4113    -6.8545    -0.9972 H       
  58 H58            0.4313    -8.0566    -3.3923 H       
  59 H59            0.4544    -8.5935    -1.6953 H       
  60 H60           -1.0398    -8.7327    -2.6526 H       
  61 H61           -1.8284     0.6206     1.3093 H       
  62 H62           -3.1459     1.8156     1.3754 H       
  63 H63            1.7293    -1.2489    -2.3175 H       
  64 H64            1.4855    -2.9850    -2.0100 H       
  65 H65            1.0056    -3.3438    -4.4161 H       
  66 H66            1.2494    -1.6077    -4.7236 H       
  67 H67           -2.2615    -1.6822     1.6203 H       
  68 H68           -5.5143     1.0266     1.0997 H       
  69 H69           -3.8433    -3.4602     2.2525 H       
  70 H70           -6.2610    -2.9962     2.3034 H       
  71 H71           -7.0964    -0.7525     1.7282 H       
  72 H72            3.2416    -2.8795    -5.1733 H       
  73 H73            3.5070    -1.8844    -3.8675 H       
  74 H74           -5.4247     2.8135    -1.1168 H       
@<TRIPOS>BOND
   1    1    2 1
   2    1   38 1
   3    1   39 1
   4    1   40 1
   5    2    3 1
   6    2    8 1
   7    2   41 1
   8    3   42 1
   9    3   43 1
  10    3   44 1
  11    4    5 1
  12    4   13 1
  13    4   37 1
  14    4   45 1
  15    5    6 2
  16    5   46 1
  17    6   15 1
  18    6   24 1
  19    7    8 1
  20    7   17 2
  21    7   24 1
  22    8   23 1
  23    8   47 1
  24    9   10 1
  25    9   23 am
  26    9   25 2
  27   10   11 1
  28   10   19 2
  29   11   12 1
  30   11   48 1
  31   11   49 1
  32   12   21 2
  33   12   50 1
  34   13   14 2
  35   13   51 1
  36   14   15 1
  37   14   52 1
  38   15   16 2
  39   16   17 1
  40   16   36 1
  41   17   26 1
  42   18   23 1
  43   18   27 1
  44   18   53 1
  45   18   54 1
  46   19   20 1
  47   19   55 1
  48   20   21 1
  49   20   56 1
  50   20   57 1
  51   21   22 1
  52   22   58 1
  53   22   59 1
  54   22   60 1
  55   26   30 1
  56   26   61 1
  57   26   62 1
  58   27   28 1
  59   27   63 1
  60   27   64 1
  61   28   35 1
  62   28   65 1
  63   28   66 1
  64   29   30 ar
  65   29   32 ar
  66   29   67 1
  67   30   31 ar
  68   31   34 ar
  69   31   68 1
  70   32   33 ar
  71   32   69 1
  72   33   34 ar
  73   33   70 1
  74   34   71 1
  75   35   72 1
  76   35   73 1
  77   36   74 1

#	End of record

