#	Name: ASD00170640
#	Creating user name:	WinNT
#	Creation time:	15. 06. 2019 18:32

#	Modifying user name:	WinNT
#	Modification time:	15. 06. 2019 18:32

#	Program:	/corina/corina34_cracker 3.40 0067  02.08.2006

@<TRIPOS>MOLECULE
ASD00170640
  44   48    0    0    0
SMALL
NO_CHARGES


@<TRIPOS>ATOM
   1 C1            -0.0203     1.2021     0.0101 C.2     
   2 O2             0.0413    -0.0066    -0.1257 O.2     
   3 C3             5.0565     1.6876     0.5168 C.3     
   4 C4             3.6066     2.0880     0.3925 C.ar    
   5 C5             2.4552     1.3482     0.2540 C.ar    
   6 C6             1.2193     1.9931     0.1595 C.ar    
   7 C7             1.1591     3.3883     0.2063 C.ar    
   8 C8             2.3127     4.1245     0.3449 C.ar    
   9 C9             3.5502     3.4801     0.4395 C.ar    
  10 C10            4.9216     4.0241     0.5917 C.ar    
  11 C11            5.3838     5.3389     0.6859 C.ar    
  12 C12            6.7334     5.5859     0.8253 C.ar    
  13 C13            7.6332     4.5360     0.8723 C.ar    
  14 C14            7.1827     3.2311     0.7795 C.ar    
  15 C15            5.8352     2.9742     0.6400 C.ar    
  16 C16           -3.2350     2.7544     0.9877 C.2     
  17 C17           -2.0782     2.1305     1.2320 C.2     
  18 C18           -1.3208     1.8718     0.0194 C.2     
  19 C19           -1.9476     2.3188    -1.1158 C.2     
  20 S20           -3.4381     3.0462    -0.7319 S.3     
  21 C21           -1.6133     1.7381     2.6254 C.3     
  22 C22           -2.4240     2.5273     3.6558 C.3     
  23 C23           -3.9157     2.3807     3.3406 C.3     
  24 C24           -4.2307     3.1586     2.0583 C.3     
  25 N25           -1.4396     2.1963    -2.3932 N.pl3   
  26 H26            5.2016     1.0744     1.4062 H       
  27 H27            5.3725     1.1413    -0.3720 H       
  28 H28            2.5065     0.2700     0.2179 H       
  29 H29            0.2053     3.8895     0.1332 H       
  30 H30            2.2626     5.2027     0.3803 H       
  31 H31            4.6848     6.1614     0.6493 H       
  32 H32            7.0894     6.6030     0.8977 H       
  33 H33            8.6890     4.7353     0.9812 H       
  34 H34            7.8869     2.4131     0.8164 H       
  35 H35           -1.7716     0.6702     2.7762 H       
  36 H36           -0.5545     1.9719     2.7367 H       
  37 H37           -2.2225     2.1378     4.6537 H       
  38 H38           -2.1440     3.5798     3.6111 H       
  39 H39           -4.1570     1.3270     3.2007 H       
  40 H40           -4.5039     2.7845     4.1647 H       
  41 H41           -4.1529     4.2299     2.2440 H       
  42 H42           -5.2407     2.9152     1.7287 H       
  43 H43           -0.5480     1.8389    -2.5284 H       
  44 H44           -1.9742     2.4675    -3.1558 H       
@<TRIPOS>BOND
   1    1    2 2
   2    1    6 1
   3    1   18 1
   4    3    4 1
   5    3   15 1
   6    3   26 1
   7    3   27 1
   8    4    5 ar
   9    4    9 ar
  10    5    6 ar
  11    5   28 1
  12    6    7 ar
  13    7    8 ar
  14    7   29 1
  15    8    9 ar
  16    8   30 1
  17    9   10 1
  18   10   11 ar
  19   10   15 ar
  20   11   12 ar
  21   11   31 1
  22   12   13 ar
  23   12   32 1
  24   13   14 ar
  25   13   33 1
  26   14   15 ar
  27   14   34 1
  28   16   17 2
  29   16   20 1
  30   16   24 1
  31   17   18 1
  32   17   21 1
  33   18   19 2
  34   19   20 1
  35   19   25 1
  36   21   22 1
  37   21   35 1
  38   21   36 1
  39   22   23 1
  40   22   37 1
  41   22   38 1
  42   23   24 1
  43   23   39 1
  44   23   40 1
  45   24   41 1
  46   24   42 1
  47   25   43 1
  48   25   44 1

#	End of record

