#	Name: ASD01148205
#	Creating user name:	WinNT
#	Creation time:	15. 06. 2019 19:02

#	Modifying user name:	WinNT
#	Modification time:	15. 06. 2019 19:02

#	Program:	/corina/corina34_cracker 3.40 0067  02.08.2006

@<TRIPOS>MOLECULE
ASD01148205
  49   52    0    0    0
SMALL
NO_CHARGES


@<TRIPOS>ATOM
   1 C1            -0.0167     1.3779     0.0096 C.ar    
   2 C2             0.0021    -0.0041     0.0020 C.ar    
   3 C3             1.2086    -0.6790    -0.0132 C.ar    
   4 C4             2.3961     0.0283    -0.0212 C.ar    
   5 C5             2.3773     1.4107    -0.0145 C.ar    
   6 C6             1.1711     2.0854     0.0021 C.ar    
   7 C7             3.6720     2.1819    -0.0223 C.3     
   8 O8             4.6970     1.4625    -0.7374 O.3     
   9 C9             3.5436     3.4712    -0.8682 C.3     
  10 C10            4.0476     3.0252    -2.2276 C.2     
  11 N11            4.6725     1.9053    -2.0799 N.2     
  12 C12            3.8561     3.7474    -3.5006 C.ar    
  13 C13            4.3751     3.2222    -4.6868 C.ar    
  14 C14            3.1509     4.9534    -3.5204 C.ar    
  15 C15            2.9724     5.6268    -4.7077 C.ar    
  16 C16            3.4962     5.1045    -5.8926 C.ar    
  17 C17            4.1964     3.8959    -5.8739 C.ar    
  18 C18            3.3041     5.8274    -7.1673 C.2     
  19 O19            2.6902     6.8765    -7.1846 O.2     
  20 N20            3.8095     5.3235    -8.3106 N.am    
  21 C21            4.1227     2.5042     1.4038 C.3     
  22 F22            4.2968     1.3140     2.1181 F       
  23 F23            5.3329     3.2050     1.3633 F       
  24 F24            3.1506     3.2884     2.0341 F       
  25 C25            3.6190     6.0401    -9.5741 C.3     
  26 C26            4.2756     5.2712   -10.6916 C.2     
  27 C27            3.6087     4.4101   -11.4659 C.2     
  28 S28            4.7447     3.7385   -12.6334 S.3     
  29 C29            6.0035     4.6824   -11.9643 C.2     
  30 N30            5.5533     5.3971   -10.9889 N.2     
  31 C31            1.2291    -2.1858    -0.0205 C.3     
  32 F32           -0.0834    -2.6701    -0.0097 F       
  33 F33            1.8834    -2.6378    -1.1715 F       
  34 F34            1.9062    -2.6485     1.1130 F       
  35 H35           -0.9592     1.9051     0.0170 H       
  36 H36           -0.9258    -0.5567     0.0083 H       
  37 H37            3.3386    -0.4989    -0.0324 H       
  38 H38            1.1565     3.1653     0.0077 H       
  39 H39            2.5039     3.7931    -0.9275 H       
  40 H40            4.1727     4.2639    -0.4632 H       
  41 H41            4.9167     2.2880    -4.6722 H       
  42 H42            2.7455     5.3571    -2.6044 H       
  43 H43            2.4269     6.5589    -4.7231 H       
  44 H44            4.6014     3.4922    -6.7901 H       
  45 H45            4.2994     4.4864    -8.2969 H       
  46 H46            2.5529     6.1390    -9.7786 H       
  47 H47            4.0685     7.0305    -9.5015 H       
  48 H48            2.5588     4.1685   -11.3896 H       
  49 H49            7.0263     4.6837   -12.3108 H       
@<TRIPOS>BOND
   1    1    2 ar
   2    1    6 ar
   3    1   35 1
   4    2    3 ar
   5    2   36 1
   6    3    4 ar
   7    3   31 1
   8    4    5 ar
   9    4   37 1
  10    5    6 ar
  11    5    7 1
  12    6   38 1
  13    7    8 1
  14    7    9 1
  15    7   21 1
  16    8   11 1
  17    9   10 1
  18    9   39 1
  19    9   40 1
  20   10   11 2
  21   10   12 1
  22   12   13 ar
  23   12   14 ar
  24   13   17 ar
  25   13   41 1
  26   14   15 ar
  27   14   42 1
  28   15   16 ar
  29   15   43 1
  30   16   17 ar
  31   16   18 1
  32   17   44 1
  33   18   19 2
  34   18   20 am
  35   20   25 1
  36   20   45 1
  37   21   22 1
  38   21   23 1
  39   21   24 1
  40   25   26 1
  41   25   46 1
  42   25   47 1
  43   26   27 2
  44   26   30 1
  45   27   28 1
  46   27   48 1
  47   28   29 1
  48   29   30 2
  49   29   49 1
  50   31   32 1
  51   31   33 1
  52   31   34 1

#	End of record

