#	Name: ASD01816943
#	Creating user name:	WinNT
#	Creation time:	15. 06. 2019 19:36

#	Modifying user name:	WinNT
#	Modification time:	15. 06. 2019 19:36

#	Program:	/corina/corina34_cracker 3.40 0067  02.08.2006

@<TRIPOS>MOLECULE
ASD01816943
  59   64    0    0    0
SMALL
NO_CHARGES


@<TRIPOS>ATOM
   1 C1            -0.0159     1.3197     0.0093 C.ar    
   2 N2             0.0021    -0.0041     0.0020 N.ar    
   3 C3             1.1158    -0.6999    -0.0123 C.ar    
   4 C4             2.3544    -0.0408    -0.0206 C.ar    
   5 C5             2.3621     1.3769    -0.0130 C.ar    
   6 C6             1.1366     2.0526     0.0022 C.ar    
   7 C7             3.5723    -0.7485    -0.0364 C.ar    
   8 C8             4.7597    -0.0948    -0.0447 C.ar    
   9 C9             4.8218     1.3071    -0.0373 C.ar    
  10 C10            3.6424     2.0744    -0.0220 C.ar    
  11 C11            6.1046     2.0237    -0.0463 C.2     
  12 N12            6.0637     3.3763    -0.0386 N.am    
  13 C13            4.8746     4.0288    -0.0229 C.2     
  14 N14            3.7274     3.4151    -0.0161 N.2     
  15 O15            7.1639     1.4234    -0.0596 O.2     
  16 C16            3.5548    -2.2554    -0.0438 C.3     
  17 C17            3.4108    -2.7491    -1.4603 C.ar    
  18 C18            4.5386    -2.9882    -2.2247 C.ar    
  19 C19            4.4126    -3.4405    -3.5226 C.ar    
  20 C20            3.1464    -3.6562    -4.0626 C.ar    
  21 C21            2.0137    -3.4137    -3.2881 C.ar    
  22 C22            2.1515    -2.9670    -1.9895 C.ar    
  23 C23            7.3129     4.1416    -0.0469 C.3     
  24 C24            7.3604     5.0314    -1.2929 C.3     
  25 C25            7.3802     5.0263     1.2017 C.3     
  26 C26            8.6500     5.8796     1.1452 C.3     
  27 O27            8.6455     6.6593    -0.0523 O.3     
  28 C28            8.6310     5.8845    -1.2530 C.3     
  29 O29            7.4096     4.2030     2.3693 O.3     
  30 C30            3.0047    -4.1419    -5.4575 C.ar    
  31 C31            4.1312    -4.3864    -6.2389 C.ar    
  32 N32            4.0081    -4.8177    -7.4779 N.ar    
  33 C33            2.8258    -5.0342    -8.0257 C.ar    
  34 C34            1.6581    -4.8136    -7.3121 C.ar    
  35 C35            1.7384    -4.3666    -6.0055 C.ar    
  36 F36            2.7536    -5.4766    -9.3001 F       
  37 H37           -0.9660     1.8331     0.0165 H       
  38 H38            1.0783    -1.7793    -0.0174 H       
  39 H39            1.1028     3.1320     0.0080 H       
  40 H40            5.6770    -0.6647    -0.0568 H       
  41 H41            4.8803     5.1087    -0.0168 H       
  42 H42            4.4862    -2.6316     0.3792 H       
  43 H43            2.7148    -2.6119     0.5524 H       
  44 H44            5.5196    -2.8203    -1.8052 H       
  45 H45            5.2939    -3.6265    -4.1186 H       
  46 H46            1.0299    -3.5793    -3.7017 H       
  47 H47            1.2743    -2.7787    -1.3883 H       
  48 H48            8.1604     3.4561    -0.0558 H       
  49 H49            7.3688     4.4070    -2.1863 H       
  50 H50            6.4857     5.6814    -1.3098 H       
  51 H51            6.5058     5.6763     1.2351 H       
  52 H52            8.6816     6.5421     2.0102 H       
  53 H53            9.5252     5.2298     1.1527 H       
  54 H54            9.5060     5.2348    -1.2769 H       
  55 H55            8.6489     6.5505    -2.1157 H       
  56 H56            7.4524     4.6982     3.1988 H       
  57 H57            5.1151    -4.2206    -5.8256 H       
  58 H58            0.6965    -4.9931    -7.7697 H       
  59 H59            0.8448    -4.1868    -5.4262 H       
@<TRIPOS>BOND
   1    1    2 ar
   2    1    6 ar
   3    1   37 1
   4    2    3 ar
   5    3    4 ar
   6    3   38 1
   7    4    5 ar
   8    4    7 ar
   9    5    6 ar
  10    5   10 ar
  11    6   39 1
  12    7    8 ar
  13    7   16 1
  14    8    9 ar
  15    8   40 1
  16    9   10 ar
  17    9   11 1
  18   10   14 1
  19   11   12 am
  20   11   15 2
  21   12   13 1
  22   12   23 1
  23   13   14 2
  24   13   41 1
  25   16   17 1
  26   16   42 1
  27   16   43 1
  28   17   18 ar
  29   17   22 ar
  30   18   19 ar
  31   18   44 1
  32   19   20 ar
  33   19   45 1
  34   20   21 ar
  35   20   30 1
  36   21   22 ar
  37   21   46 1
  38   22   47 1
  39   23   24 1
  40   23   25 1
  41   23   48 1
  42   24   28 1
  43   24   49 1
  44   24   50 1
  45   25   26 1
  46   25   29 1
  47   25   51 1
  48   26   27 1
  49   26   52 1
  50   26   53 1
  51   27   28 1
  52   28   54 1
  53   28   55 1
  54   29   56 1
  55   30   31 ar
  56   30   35 ar
  57   31   32 ar
  58   31   57 1
  59   32   33 ar
  60   33   34 ar
  61   33   36 1
  62   34   35 ar
  63   34   58 1
  64   35   59 1

#	End of record

