#	Name: ASD08150921
#	Creating user name:	WinNT
#	Creation time:	15. 06. 2019 21:16

#	Modifying user name:	WinNT
#	Modification time:	15. 06. 2019 21:16

#	Program:	/corina/corina34_cracker 3.40 0067  02.08.2006

@<TRIPOS>MOLECULE
ASD08150921
  51   55    0    0    0
SMALL
NO_CHARGES


@<TRIPOS>ATOM
   1 N1             0.0857     1.3990    -0.4764 N.2     
   2 C2             0.1349     0.1024    -0.5761 C.2     
   3 N3             1.4316    -0.3093    -0.6619 N.pl3   
   4 C4             2.2229     0.8104    -0.6111 C.ar    
   5 N5             3.5317     1.0372    -0.6497 N.ar    
   6 C6             4.0024     2.2645    -0.5775 C.ar    
   7 N7             3.2165     3.3196    -0.4644 N.ar    
   8 C8             1.8944     3.1912    -0.4178 C.ar    
   9 C9             1.3441     1.9005    -0.4918 C.ar    
  10 N10            1.0789     4.3029    -0.2987 N.pl3   
  11 C11            1.6708     5.6408    -0.2224 C.3     
  12 C12            2.0222     6.1241    -1.6309 C.3     
  13 N13            0.6284     9.6617     2.3508 N.ar    
  14 C14           -0.2265    10.4920     2.8968 C.ar    
  15 C15           -1.6023    10.2936     2.8030 C.ar    
  16 C16           -2.0902     9.2109     2.1284 C.ar    
  17 C17           -1.1686     8.3218     1.5436 C.ar    
  18 C18           -1.5979     7.1875     0.8344 C.ar    
  19 C19           -0.6805     6.3461     0.2793 C.ar    
  20 C20            0.6836     6.5920     0.4033 C.ar    
  21 C21            1.1430     7.6939     1.0913 C.ar    
  22 C22            0.2168     8.5840     1.6775 C.ar    
  23 N23            2.5135     7.9281     1.2083 N.3     
  24 C24            2.9408     7.8617     2.6116 C.3     
  25 C25            4.4649     7.9778     2.6882 C.3     
  26 C26            4.9027     9.3058     2.0642 C.3     
  27 C27            4.4036     9.3702     0.6181 C.3     
  28 C28            2.8813     9.2138     0.6015 C.3     
  29 F29            4.3582    10.3676     2.7945 F       
  30 F30            6.2989     9.3925     2.0812 F       
  31 Cl31          -3.2940     6.8579     0.6658 Cl      
  32 H32           -0.7248    -0.5512    -0.5887 H       
  33 H33            1.7386    -1.2258    -0.7437 H       
  34 H34            5.0715     2.4140    -0.6118 H       
  35 H35            0.1154     4.1963    -0.2657 H       
  36 H36            2.5750     5.6040     0.3852 H       
  37 H37            2.3801     7.1526    -1.5834 H       
  38 H38            2.8014     5.4873    -2.0497 H       
  39 H39            1.1355     6.0768    -2.2630 H       
  40 H40            0.1454    11.3522     3.4336 H       
  41 H41           -2.2823    10.9949     3.2636 H       
  42 H42           -3.1537     9.0413     2.0461 H       
  43 H43           -1.0171     5.4759    -0.2646 H       
  44 H44            2.4857     8.6805     3.1690 H       
  45 H45            2.6269     6.9109     3.0423 H       
  46 H46            4.7804     7.9442     3.7310 H       
  47 H47            4.9206     7.1516     2.1427 H       
  48 H48            4.6754    10.3314     0.1818 H       
  49 H49            4.8584     8.5659     0.0399 H       
  50 H50            2.5242     9.2449    -0.4279 H       
  51 H51            2.4265    10.0262     1.1682 H       
@<TRIPOS>BOND
   1    1    2 2
   2    1    9 1
   3    2    3 1
   4    2   32 1
   5    3    4 1
   6    3   33 1
   7    4    5 ar
   8    4    9 ar
   9    5    6 ar
  10    6    7 ar
  11    6   34 1
  12    7    8 ar
  13    8    9 ar
  14    8   10 1
  15   10   11 1
  16   10   35 1
  17   11   12 1
  18   11   20 1
  19   11   36 1
  20   12   37 1
  21   12   38 1
  22   12   39 1
  23   13   14 ar
  24   13   22 ar
  25   14   15 ar
  26   14   40 1
  27   15   16 ar
  28   15   41 1
  29   16   17 ar
  30   16   42 1
  31   17   18 ar
  32   17   22 ar
  33   18   19 ar
  34   18   31 1
  35   19   20 ar
  36   19   43 1
  37   20   21 ar
  38   21   22 ar
  39   21   23 1
  40   23   24 1
  41   23   28 1
  42   24   25 1
  43   24   44 1
  44   24   45 1
  45   25   26 1
  46   25   46 1
  47   25   47 1
  48   26   27 1
  49   26   29 1
  50   26   30 1
  51   27   28 1
  52   27   48 1
  53   27   49 1
  54   28   50 1
  55   28   51 1

#	End of record

