#	Name: ASD01882049
#	Creating user name:	WinNT
#	Creation time:	15. 06. 2019 19:43

#	Modifying user name:	WinNT
#	Modification time:	15. 06. 2019 19:43

#	Program:	/corina/corina34_cracker 3.40 0067  02.08.2006

@<TRIPOS>MOLECULE
ASD01882049
  54   57    0    0    0
SMALL
NO_CHARGES


@<TRIPOS>ATOM
   1 C1            -0.0161     1.3337     0.0094 C.2     
   2 N2             0.0021    -0.0041     0.0020 N.am    
   3 C3             1.2613    -0.4841    -0.0126 C.2     
   4 C4             2.1640     0.7337    -0.0147 C.3     
   5 N5             1.2200     1.8645     0.0004 N.am    
   6 O6            -1.0354     1.9955     0.0180 O.2     
   7 O7             1.6013    -1.6477    -0.0215 O.2     
   8 C8             1.5609     3.2893     0.0041 C.3     
   9 C9             1.6916     3.7708     1.4261 C.ar    
  10 C10            2.9179     3.7119     2.0635 C.ar    
  11 C11            3.0436     4.1515     3.3656 C.ar    
  12 C12            1.9317     4.6556     4.0386 C.ar    
  13 C13            0.6985     4.7125     3.3911 C.ar    
  14 C14            0.5860     4.2753     2.0870 C.ar    
  15 C15            2.1296     6.5463     9.4228 C.2     
  16 N16            0.8532     6.9185     9.6195 N.am    
  17 C17            0.0906     6.6569     8.3935 C.3     
  18 C18            1.0684     6.0704     7.4058 C.ar    
  19 C19            0.9454     5.6335     6.1100 C.ar    
  20 C20            2.0602     5.1290     5.4378 C.ar    
  21 C21            3.2953     5.0703     6.0844 C.ar    
  22 C22            3.4183     5.5084     7.3833 C.ar    
  23 C23            2.3036     6.0140     8.0586 C.ar    
  24 C24            0.3121     7.4904    10.8550 C.3     
  25 C25            0.4361     9.0146    10.8085 C.3     
  26 C26           -0.1289     9.6119    12.0988 C.3     
  27 F27            0.5883     9.1188    13.1941 F       
  28 F28           -0.0155    11.0056    12.0562 F       
  29 F29           -1.4763     9.2573    12.2258 F       
  30 O30            3.0156     6.6401    10.2499 O.2     
  31 C31           -1.1986    -0.8435     0.0097 C.3     
  32 C32           -1.6312    -1.1279    -1.4300 C.3     
  33 H33            2.7924     0.7467     0.8759 H       
  34 H34            2.7753     0.7564    -0.9169 H       
  35 H35            2.5060     3.4381    -0.5182 H       
  36 H36            0.7749     3.8522    -0.4994 H       
  37 H37            3.7786     3.3209     1.5412 H       
  38 H38            4.0014     4.1047     3.8624 H       
  39 H39           -0.1663     5.1021     3.9076 H       
  40 H40           -0.3679     4.3233     1.5828 H       
  41 H41           -0.7104     5.9457     8.5952 H       
  42 H42           -0.3229     7.5872     8.0040 H       
  43 H43           -0.0116     5.6802     5.6117 H       
  44 H44            4.1573     4.6796     5.5640 H       
  45 H45            4.3757     5.4612     7.8808 H       
  46 H46           -0.7376     7.2141    10.9540 H       
  47 H47            0.8710     7.1062    11.7083 H       
  48 H48            1.4859     9.2909    10.7095 H       
  49 H49           -0.1227     9.3988     9.9551 H       
  50 H50           -0.9813    -1.7838     0.5163 H       
  51 H51           -2.0010    -0.3250     0.5345 H       
  52 H52           -1.8486    -0.1876    -1.9366 H       
  53 H53           -0.8288    -1.6464    -1.9548 H       
  54 H54           -2.5246    -1.7525    -1.4242 H       
@<TRIPOS>BOND
   1    1    2 am
   2    1    5 am
   3    1    6 2
   4    2    3 am
   5    2   31 1
   6    3    4 1
   7    3    7 2
   8    4    5 1
   9    4   33 1
  10    4   34 1
  11    5    8 1
  12    8    9 1
  13    8   35 1
  14    8   36 1
  15    9   10 ar
  16    9   14 ar
  17   10   11 ar
  18   10   37 1
  19   11   12 ar
  20   11   38 1
  21   12   13 ar
  22   12   20 1
  23   13   14 ar
  24   13   39 1
  25   14   40 1
  26   15   16 am
  27   15   23 1
  28   15   30 2
  29   16   17 1
  30   16   24 1
  31   17   18 1
  32   17   41 1
  33   17   42 1
  34   18   19 ar
  35   18   23 ar
  36   19   20 ar
  37   19   43 1
  38   20   21 ar
  39   21   22 ar
  40   21   44 1
  41   22   23 ar
  42   22   45 1
  43   24   25 1
  44   24   46 1
  45   24   47 1
  46   25   26 1
  47   25   48 1
  48   25   49 1
  49   26   27 1
  50   26   28 1
  51   26   29 1
  52   31   32 1
  53   31   50 1
  54   31   51 1
  55   32   52 1
  56   32   53 1
  57   32   54 1

#	End of record

