#	Name: ASD01811717
#	Creating user name:	WinNT
#	Creation time:	15. 06. 2019 19:27

#	Modifying user name:	WinNT
#	Modification time:	15. 06. 2019 19:27

#	Program:	/corina/corina34_cracker 3.40 0067  02.08.2006

@<TRIPOS>MOLECULE
ASD01811717
  47   50    0    0    0
SMALL
NO_CHARGES


@<TRIPOS>ATOM
   1 C1             0.1118     1.4230     0.0129 C.ar    
   2 C2            -0.0216     0.0449    -0.0080 C.ar    
   3 C3             1.1019    -0.7630    -0.0110 C.ar    
   4 C4             2.3624    -0.2030     0.0065 C.ar    
   5 C5             2.5051     1.1857     0.0273 C.ar    
   6 C6             1.3644     1.9917     0.0305 C.ar    
   7 C7            -1.3942    -0.5769    -0.0272 C.3     
   8 C8             0.9476    -2.2619    -0.0328 C.3     
   9 C9             2.3032    -2.9045    -0.1757 C.ar    
  10 C10            2.9943    -3.3161     0.9479 C.ar    
  11 C11            4.2379    -3.9056     0.8183 C.ar    
  12 C12            4.7922    -4.0848    -0.4377 C.ar    
  13 C13            4.1005    -3.6732    -1.5641 C.ar    
  14 C14            2.8534    -3.0875    -1.4335 C.ar    
  15 F15            2.1772    -2.6854    -2.5318 F       
  16 F16            6.0078    -4.6606    -0.5640 F       
  17 C17            3.6914     2.0627     0.0487 C.2     
  18 N18            3.3166     3.3535     0.0641 N.am    
  19 C19            1.8508     3.4192     0.0542 C.3     
  20 O20            4.8430     1.6736     0.0525 O.2     
  21 C21            4.2222     4.5049     0.0868 C.3     
  22 C22            5.1248     4.4901    -1.1593 C.3     
  23 C23            6.5778     4.3938    -0.6499 C.3     
  24 C24            6.4459     3.7580     0.7563 C.3     
  25 C25            5.1582     4.4169     1.3099 C.3     
  26 O26            4.9471     5.6950    -1.9068 O.3     
  27 H27           -0.7668     2.0510     0.0110 H       
  28 H28            3.2366    -0.8371     0.0045 H       
  29 H29           -1.7510    -0.6382    -1.0554 H       
  30 H30           -1.3456    -1.5781     0.4008 H       
  31 H31           -2.0790     0.0360     0.5590 H       
  32 H32            0.4847    -2.5931     0.8968 H       
  33 H33            0.3183    -2.5501    -0.8749 H       
  34 H34            2.5627    -3.1767     1.9280 H       
  35 H35            4.7775    -4.2263     1.6972 H       
  36 H36            4.5321    -3.8126    -2.5443 H       
  37 H37            1.5055     3.9474    -0.8346 H       
  38 H38            1.4923     3.9222     0.9524 H       
  39 H39            3.6486     5.4310     0.1214 H       
  40 H40            4.8891     3.6264    -1.7810 H       
  41 H41            7.1697     3.7536    -1.3041 H       
  42 H42            7.0240     5.3858    -0.5797 H       
  43 H43            6.3255     2.6772     0.6818 H       
  44 H44            7.3061     4.0100     1.3764 H       
  45 H45            5.3751     5.4126     1.6967 H       
  46 H46            4.7141     3.7936     2.0861 H       
  47 H47            5.4898     5.7461    -2.7055 H       
@<TRIPOS>BOND
   1    1    2 ar
   2    1    6 ar
   3    1   27 1
   4    2    3 ar
   5    2    7 1
   6    3    4 ar
   7    3    8 1
   8    4    5 ar
   9    4   28 1
  10    5    6 ar
  11    5   17 1
  12    6   19 1
  13    7   29 1
  14    7   30 1
  15    7   31 1
  16    8    9 1
  17    8   32 1
  18    8   33 1
  19    9   10 ar
  20    9   14 ar
  21   10   11 ar
  22   10   34 1
  23   11   12 ar
  24   11   35 1
  25   12   13 ar
  26   12   16 1
  27   13   14 ar
  28   13   36 1
  29   14   15 1
  30   17   18 am
  31   17   20 2
  32   18   19 1
  33   18   21 1
  34   19   37 1
  35   19   38 1
  36   21   22 1
  37   21   25 1
  38   21   39 1
  39   22   23 1
  40   22   26 1
  41   22   40 1
  42   23   24 1
  43   23   41 1
  44   23   42 1
  45   24   25 1
  46   24   43 1
  47   24   44 1
  48   25   45 1
  49   25   46 1
  50   26   47 1

#	End of record

