#	Name: ASD07932211
#	Creating user name:	WinNT
#	Creation time:	15. 06. 2019 21:14

#	Modifying user name:	WinNT
#	Modification time:	15. 06. 2019 21:14

#	Program:	/corina/corina34_cracker 3.40 0067  02.08.2006

@<TRIPOS>MOLECULE
ASD07932211
  73   75    0    0    0
SMALL
NO_CHARGES


@<TRIPOS>ATOM
   1 Cl1            0.0000     0.0000     0.0000 Cl      
   2 H2             0.0000     1.3700     0.0000 H       
   3 Cl3            5.0000     6.3700     5.0000 Cl      
   4 H4             5.0000     7.7400     5.0000 H       
   5 C5            10.9465    20.4394    13.4561 C.ar    
   6 C6            10.9767    19.0469    13.4542 C.ar    
   7 C7            12.1548    18.3714    13.3255 C.ar    
   8 C8            13.3565    19.0884    13.1927 C.ar    
   9 C9            13.3291    20.5077    13.1943 C.ar    
  10 C10           12.0910    21.1682    13.3297 C.ar    
  11 C11           14.5911    18.4268    13.0582 C.ar    
  12 C12           15.7199    19.1844    12.9339 C.ar    
  13 C13           15.6251    20.5840    12.9428 C.ar    
  14 N14           14.4634    21.1955    13.0690 N.ar    
  15 C15           16.8590    21.3944    12.8069 C.2     
  16 N16           16.7856    22.7401    12.8135 N.am    
  17 O17           17.9365    20.8453    12.6894 O.2     
  18 C18           18.0050    23.5409    12.6792 C.3     
  19 C19           17.7854    24.9150    13.3151 C.3     
  20 C20           19.0589    25.7513    13.1748 C.3     
  21 C21           19.3953    25.9233    11.6921 C.3     
  22 C22           19.6149    24.5492    11.0562 C.3     
  23 C23           18.3414    23.7129    11.1966 C.3     
  24 O24           17.4712    24.7544    14.6998 O.3     
  25 C25           14.6653    16.9216    13.0522 C.3     
  26 N26           14.4575    16.4156    14.4155 N.3     
  27 C27           14.1576    14.9781    14.4033 C.3     
  28 C28           13.8050    14.5172    15.8194 C.3     
  29 C29           14.9846    14.8036    16.7527 C.3     
  30 C30           15.3075    16.2997    16.7100 C.3     
  31 C31           15.6166    16.7090    15.2681 C.3     
  32 C32           14.6209    14.4068    18.1603 C.ar    
  33 F33           12.0393    22.5182    13.3336 F       
  34 C34           16.1592    14.0340    16.3112 C.1     
  35 N35           17.0657    13.4402    15.9706 N.1     
  36 N36           13.3584    14.1850    18.4692 N.ar    
  37 C37           12.9936    13.8359    19.6876 C.ar    
  38 C38           13.9316    13.6898    20.6917 C.ar    
  39 C39           15.2695    13.9147    20.4046 C.ar    
  40 C40           15.6153    14.2742    19.1112 C.ar    
  41 C41           16.3230    13.7663    21.4719 C.3     
  42 F42           12.1666    17.0205    13.3260 F       
  43 H43           10.0000    20.9500    13.5550 H       
  44 H44           10.0545    18.4942    13.5564 H       
  45 H45           16.6833    18.7075    12.8292 H       
  46 H46           15.9254    23.1784    12.9073 H       
  47 H47           18.8291    23.0351    13.1824 H       
  48 H48           16.9613    25.4207    12.8118 H       
  49 H49           18.9024    26.7303    13.6278 H       
  50 H50           19.8830    25.2456    13.6780 H       
  51 H51           18.5712    26.4291    11.1889 H       
  52 H52           20.3026    26.5191    11.5922 H       
  53 H53           19.8546    24.6717    10.0000 H       
  54 H54           20.4390    24.0435    11.5595 H       
  55 H55           18.4979    22.7339    10.7435 H       
  56 H56           17.5174    24.2186    10.6933 H       
  57 H57           17.3189    25.5868    15.1677 H       
  58 H58           13.8929    16.5224    12.3948 H       
  59 H59           15.6456    16.6076    12.6935 H       
  60 H60           13.3143    14.7887    13.7391 H       
  61 H61           15.0295    14.4282    14.0489 H       
  62 H62           12.9249    15.0568    16.1691 H       
  63 H63           13.5977    13.4471    15.8127 H       
  64 H64           14.4510    16.8674    17.0737 H       
  65 H65           16.1736    16.5032    17.3396 H       
  66 H66           16.4816    16.1510    14.9097 H       
  67 H67           15.8329    17.7767    15.2321 H       
  68 H68           11.9496    13.6625    19.9031 H       
  69 H69           13.6265    13.4043    21.6876 H       
  70 H70           16.6477    14.4567    18.8519 H       
  71 H71           16.6901    12.7400    21.4800 H       
  72 H72           17.1493    14.4461    21.2638 H       
  73 H73           15.8917    14.0056    22.4439 H       
@<TRIPOS>BOND
   1    1    2 1
   2    3    4 1
   3    5    6 ar
   4    5   10 ar
   5    5   43 1
   6    6    7 ar
   7    6   44 1
   8    7    8 ar
   9    7   42 1
  10    8    9 ar
  11    8   11 ar
  12    9   10 ar
  13    9   14 ar
  14   10   33 1
  15   11   12 ar
  16   11   25 1
  17   12   13 ar
  18   12   45 1
  19   13   14 ar
  20   13   15 1
  21   15   16 am
  22   15   17 2
  23   16   18 1
  24   16   46 1
  25   18   19 1
  26   18   23 1
  27   18   47 1
  28   19   20 1
  29   19   24 1
  30   19   48 1
  31   20   21 1
  32   20   49 1
  33   20   50 1
  34   21   22 1
  35   21   51 1
  36   21   52 1
  37   22   23 1
  38   22   53 1
  39   22   54 1
  40   23   55 1
  41   23   56 1
  42   24   57 1
  43   25   26 1
  44   25   58 1
  45   25   59 1
  46   26   27 1
  47   26   31 1
  48   27   28 1
  49   27   60 1
  50   27   61 1
  51   28   29 1
  52   28   62 1
  53   28   63 1
  54   29   30 1
  55   29   32 1
  56   29   34 1
  57   30   31 1
  58   30   64 1
  59   30   65 1
  60   31   66 1
  61   31   67 1
  62   32   36 ar
  63   32   40 ar
  64   34   35 3
  65   36   37 ar
  66   37   38 ar
  67   37   68 1
  68   38   39 ar
  69   38   69 1
  70   39   40 ar
  71   39   41 1
  72   40   70 1
  73   41   71 1
  74   41   72 1
  75   41   73 1

#	End of record

