#	Name: ASD07300284
#	Creating user name:	WinNT
#	Creation time:	15. 06. 2019 21:09

#	Modifying user name:	WinNT
#	Modification time:	15. 06. 2019 21:09

#	Program:	/corina/corina34_cracker 3.40 0067  02.08.2006

@<TRIPOS>MOLECULE
ASD07300284
  43   45    0    0    0
SMALL
NO_CHARGES


@<TRIPOS>ATOM
   1 C1            -0.1750     1.4018    -0.5783 C.ar    
   2 C2            -0.1487    -0.0042    -0.5704 C.ar    
   3 C3             0.9227    -0.6615    -1.1868 C.ar    
   4 C4             1.9113     0.1046    -1.7783 C.ar    
   5 C5             1.8157     1.4846    -1.7452 C.ar    
   6 N6             0.7986     2.0857    -1.1596 N.ar    
   7 C7            -1.2281    -0.7710     0.0749 C.2     
   8 O8            -2.2054    -1.1024    -0.5669 O.2     
   9 O9            -1.1319    -1.1051     1.3769 O.3     
  10 C10            0.9976    -2.1665    -1.2052 C.3     
  11 F11            2.1571    -2.5676    -1.8775 F       
  12 F12            1.0300    -2.6479     0.1080 F       
  13 F13           -0.1246    -2.6813    -1.8631 F       
  14 N14           -1.2259     2.0736     0.0191 N.pl3   
  15 C15           -1.1976     3.4698     0.1193 C.ar    
  16 C16           -2.3762     4.1975     0.0196 C.ar    
  17 C17           -2.3475     5.5745     0.1189 C.ar    
  18 C18           -1.1419     6.2309     0.3182 C.ar    
  19 C19            0.0359     5.5048     0.4179 C.ar    
  20 C20            0.0083     4.1274     0.3240 C.ar    
  21 O21           -1.1144     7.5870     0.4155 O.3     
  22 C22            0.1614     8.1971     0.6206 C.3     
  23 C23           -0.0042     9.6927     0.7028 C.ar    
  24 C24           -0.2315    10.2967     1.9253 C.ar    
  25 C25           -0.3835    11.6686     2.0007 C.ar    
  26 C26           -0.3079    12.4365     0.8538 C.ar    
  27 C27           -0.0797    11.8325    -0.3685 C.ar    
  28 C28            0.0766    10.4611    -0.4434 C.ar    
  29 H29            2.7516    -0.3709    -2.2620 H       
  30 H30            2.5888     2.0806    -2.2073 H       
  31 H31           -1.8651    -1.6086     1.7563 H       
  32 H32           -1.9825     1.5775     0.3688 H       
  33 H33           -3.3149     3.6866    -0.1360 H       
  34 H34           -3.2640     6.1406     0.0411 H       
  35 H35            0.9741     6.0167     0.5731 H       
  36 H36            0.9248     3.5619     0.4057 H       
  37 H37            0.5955     7.8279     1.5498 H       
  38 H38            0.8204     7.9497    -0.2117 H       
  39 H39           -0.2906     9.6967     2.8214 H       
  40 H40           -0.5618    12.1404     2.9557 H       
  41 H41           -0.4273    13.5082     0.9127 H       
  42 H42           -0.0209    12.4325    -1.2647 H       
  43 H43            0.2585     9.9896    -1.3979 H       
@<TRIPOS>BOND
   1    1    2 ar
   2    1    6 ar
   3    1   14 1
   4    2    3 ar
   5    2    7 1
   6    3    4 ar
   7    3   10 1
   8    4    5 ar
   9    4   29 1
  10    5    6 ar
  11    5   30 1
  12    7    8 2
  13    7    9 1
  14    9   31 1
  15   10   11 1
  16   10   12 1
  17   10   13 1
  18   14   15 1
  19   14   32 1
  20   15   16 ar
  21   15   20 ar
  22   16   17 ar
  23   16   33 1
  24   17   18 ar
  25   17   34 1
  26   18   19 ar
  27   18   21 1
  28   19   20 ar
  29   19   35 1
  30   20   36 1
  31   21   22 1
  32   22   23 1
  33   22   37 1
  34   22   38 1
  35   23   24 ar
  36   23   28 ar
  37   24   25 ar
  38   24   39 1
  39   25   26 ar
  40   25   40 1
  41   26   27 ar
  42   26   41 1
  43   27   28 ar
  44   27   42 1
  45   28   43 1

#	End of record

