#	Name: ASD01230151
#	Creating user name:	WinNT
#	Creation time:	15. 06. 2019 19:11

#	Modifying user name:	WinNT
#	Modification time:	15. 06. 2019 19:11

#	Program:	/corina/corina34_cracker 3.40 0067  02.08.2006

@<TRIPOS>MOLECULE
ASD01230151
  51   54    0    0    0
SMALL
NO_CHARGES


@<TRIPOS>ATOM
   1 S1            -1.6217     2.7530     1.5552 S.o2    
   2 N2            -1.3526     1.2761     0.8767 N.am    
   3 C3            -0.2278     0.8827     0.4278 C.2     
   4 N4             0.9283     1.6187     0.4827 N.pl3   
   5 C5             1.1089     2.6852     1.4613 C.3     
   6 C6            -0.0653     3.6620     1.3709 C.3     
   7 C7            -0.0959    -0.4907    -0.2105 C.3     
   8 C8             1.2814    -1.0396     0.1702 C.3     
   9 C9             2.3969    -0.1588    -0.3765 C.3     
  10 C10            1.9798     1.3025    -0.4898 C.3     
  11 C11           -1.1743    -1.4045     0.3120 C.ar    
  12 C12           -2.0843    -1.9689    -0.5627 C.ar    
  13 C13           -3.0738    -2.8069    -0.0864 C.ar    
  14 C14           -3.1536    -3.0826     1.2712 C.ar    
  15 C15           -2.2388    -2.5153     2.1468 C.ar    
  16 C16           -1.2484    -1.6818     1.6646 C.ar    
  17 O17           -4.1262    -3.9063     1.7424 O.3     
  18 C18           -4.9322    -4.5236     0.8392 C.ar    
  19 C19           -4.5700    -5.7549     0.3119 C.ar    
  20 C20           -5.3914    -6.3805    -0.6057 C.ar    
  21 C21           -6.5734    -5.7807    -0.9992 C.ar    
  22 C22           -6.9368    -4.5537    -0.4753 C.ar    
  23 C23           -6.1217    -3.9265     0.4470 C.ar    
  24 C24           -7.4671    -6.4651    -2.0012 C.3     
  25 C25           -8.4649    -7.3620    -1.2657 C.3     
  26 F26           -8.1625    -5.5020    -2.7402 F       
  27 F27           -6.6890    -7.2434    -2.8649 F       
  28 O28           -2.6322     3.3302     0.7398 O.2     
  29 O29           -1.8685     2.4654     2.9248 O.2     
  30 H30            1.1490     2.2566     2.4627 H       
  31 H31            2.0390     3.2146     1.2547 H       
  32 H32           -0.0487     4.1615     0.4022 H       
  33 H33            0.0180     4.4047     2.1643 H       
  34 H34           -0.1743    -0.4049    -1.2943 H       
  35 H35            1.3607    -1.0831     1.2564 H       
  36 H36            1.3895    -2.0455    -0.2354 H       
  37 H37            3.2594    -0.2294     0.2862 H       
  38 H38            2.6819    -0.5221    -1.3638 H       
  39 H39            1.6068     1.4924    -1.4962 H       
  40 H40            2.8450     1.9384    -0.3024 H       
  41 H41           -2.0218    -1.7540    -1.6193 H       
  42 H42           -3.7848    -3.2468    -0.7700 H       
  43 H43           -2.2988    -2.7283     3.2039 H       
  44 H44           -0.5336    -1.2433     2.3452 H       
  45 H45           -3.6465    -6.2235     0.6184 H       
  46 H46           -5.1099    -7.3389    -1.0164 H       
  47 H47           -7.8604    -4.0872    -0.7845 H       
  48 H48           -6.4080    -2.9700     0.8590 H       
  49 H49           -9.0711    -6.7556    -0.5927 H       
  50 H50           -9.1112    -7.8571    -1.9904 H       
  51 H51           -7.9231    -8.1124    -0.6899 H       
@<TRIPOS>BOND
   1    1    2 am
   2    1    6 1
   3    1   28 2
   4    1   29 2
   5    2    3 2
   6    3    4 1
   7    3    7 1
   8    4    5 1
   9    4   10 1
  10    5    6 1
  11    5   30 1
  12    5   31 1
  13    6   32 1
  14    6   33 1
  15    7    8 1
  16    7   11 1
  17    7   34 1
  18    8    9 1
  19    8   35 1
  20    8   36 1
  21    9   10 1
  22    9   37 1
  23    9   38 1
  24   10   39 1
  25   10   40 1
  26   11   12 ar
  27   11   16 ar
  28   12   13 ar
  29   12   41 1
  30   13   14 ar
  31   13   42 1
  32   14   15 ar
  33   14   17 1
  34   15   16 ar
  35   15   43 1
  36   16   44 1
  37   17   18 1
  38   18   19 ar
  39   18   23 ar
  40   19   20 ar
  41   19   45 1
  42   20   21 ar
  43   20   46 1
  44   21   22 ar
  45   21   24 1
  46   22   23 ar
  47   22   47 1
  48   23   48 1
  49   24   25 1
  50   24   26 1
  51   24   27 1
  52   25   49 1
  53   25   50 1
  54   25   51 1

#	End of record

