#	Name: ASD01028807
#	Creating user name:	WinNT
#	Creation time:	15. 06. 2019 18:58

#	Modifying user name:	WinNT
#	Modification time:	15. 06. 2019 18:58

#	Program:	/corina/corina34_cracker 3.40 0067  02.08.2006

@<TRIPOS>MOLECULE
ASD01028807
  31   34    0    0    0
SMALL
NO_CHARGES


@<TRIPOS>ATOM
   1 C1            -0.0178     1.4648     0.0101 C.3     
   2 N2             0.0021    -0.0041     0.0020 N.3     
   3 C3             3.3524     2.7137    -0.6327 C.2     
   4 C4             4.3502     3.0895    -1.5515 C.2     
   5 C5             4.0902     3.0050    -2.8831 C.2     
   6 C6             2.8339     2.5460    -3.3312 C.2     
   7 N7             1.9013     2.1944    -2.4744 N.2     
   8 N8             2.1375     2.2697    -1.1005 N.pl3   
   9 N9             2.1329     2.2466     1.0504 N.2     
  10 N10            3.2916     2.6744     0.6880 N.2     
  11 C11            1.3960     1.9864    -0.0006 C.2     
  12 O12            2.8702     2.5910    -6.8429 O.3     
  13 N13            3.3810     2.7697    -5.7617 N.2     
  14 C14            2.5618     2.4592    -4.7882 C.2     
  15 C15            1.3587     2.0214    -5.4086 C.2     
  16 C16            1.6169     2.1283    -6.7319 C.2     
  17 C17            0.6782     1.7925    -7.8620 C.3     
  18 C18            0.3085     2.9171    -8.8311 C.3     
  19 C19            1.2503     1.7984    -9.2810 C.3     
  20 H20           -0.5450     1.8259    -0.8730 H       
  21 H21           -0.5280     1.8163     0.9069 H       
  22 H22           -0.9349    -0.3784     0.0090 H       
  23 H23            0.5256    -0.3543    -0.7863 H       
  24 H24            5.3102     3.4409    -1.2030 H       
  25 H25            4.8467     3.2901    -3.5993 H       
  26 H26            0.4502     1.6821    -4.9332 H       
  27 H27           -0.0896     1.0539    -7.6316 H       
  28 H28           -0.7024     2.9183    -9.2387 H       
  29 H29            0.7443     3.8999    -8.6514 H       
  30 H30            2.3056     2.0452    -9.3971 H       
  31 H31            0.8590     1.0635    -9.9845 H       
@<TRIPOS>BOND
   1    1    2 1
   2    1   11 1
   3    1   20 1
   4    1   21 1
   5    2   22 1
   6    2   23 1
   7    3    4 1
   8    3    8 1
   9    3   10 2
  10    4    5 2
  11    4   24 1
  12    5    6 1
  13    5   25 1
  14    6    7 2
  15    6   14 1
  16    7    8 1
  17    8   11 1
  18    9   10 1
  19    9   11 2
  20   12   13 1
  21   12   16 1
  22   13   14 2
  23   14   15 1
  24   15   16 2
  25   15   26 1
  26   16   17 1
  27   17   18 1
  28   17   19 1
  29   17   27 1
  30   18   19 1
  31   18   28 1
  32   18   29 1
  33   19   30 1
  34   19   31 1

#	End of record

