#	Name: ASD03091175
#	Creating user name:	WinNT
#	Creation time:	15. 06. 2019 20:30

#	Modifying user name:	WinNT
#	Modification time:	15. 06. 2019 20:30

#	Program:	/corina/corina34_cracker 3.40 0067  02.08.2006

@<TRIPOS>MOLECULE
ASD03091175
  64   68    0    0    0
SMALL
NO_CHARGES


@<TRIPOS>ATOM
   1 C1            -0.0291     1.4693     0.0322 C.2     
   2 C2             0.0031    -0.0372     0.0101 C.3     
   3 O3             1.0081     2.0979     0.0344 O.2     
   4 N4            -1.2104     2.1180     0.0439 N.am    
   5 C5            -1.2416     3.5825     0.0654 C.3     
   6 C6            -2.5607     4.0733    -0.5346 C.3     
   7 C7            -1.1241     4.0739     1.5096 C.3     
   8 N8             3.3293    -1.0140     1.2296 N.2     
   9 C9             2.0864    -0.6110     1.1697 C.2     
  10 N10            1.3943    -0.4958    -0.0059 N.am    
  11 C11            1.9878    -0.8036    -1.1827 C.2     
  12 C12            3.3853    -1.2591    -1.1393 C.ar    
  13 C13            4.0827    -1.5986    -2.2964 C.ar    
  14 C14            5.3976    -2.0211    -2.1972 C.ar    
  15 C15            6.0198    -2.1066    -0.9516 C.ar    
  16 C16            5.3491    -1.7776     0.1910 C.ar    
  17 C17            4.0204    -1.3474     0.1205 C.ar    
  18 O18            1.3872    -0.7074    -2.2372 O.2     
  19 C19            1.3972    -0.2638     2.4294 C.ar    
  20 C20            0.1878    -0.8790     2.7591 C.ar    
  21 C21           -0.4511    -0.5512     3.9359 C.ar    
  22 C22            0.1047     0.3876     4.7912 C.ar    
  23 C23            1.3052     1.0014     4.4689 C.ar    
  24 C24            1.9557     0.6766     3.2976 C.ar    
  25 F25           -0.5260     0.7058     5.9428 F       
  26 N26            7.1039    -2.0627    -6.1240 N.3     
  27 C27            5.9198    -2.8639    -5.7779 C.3     
  28 C28            5.2398    -2.3088    -4.5362 C.3     
  29 N29            6.1057    -2.3645    -3.3523 N.3     
  30 C30            7.2794    -1.4977    -3.5277 C.3     
  31 C31            8.4540    -2.2980    -4.0701 C.3     
  32 C32            8.3079    -2.6644    -5.5332 C.3     
  33 C33            7.0076    -0.6395    -5.8803 C.3     
  34 C34            6.8989    -0.3149    -4.3994 C.3     
  35 H35           -0.4970    -0.4244     0.8979 H       
  36 H36           -0.5088    -0.3985    -0.8819 H       
  37 H37           -2.0399     1.6152     0.0381 H       
  38 H38           -0.4088     3.9723    -0.5199 H       
  39 H39           -3.3935     3.6835     0.0508 H       
  40 H40           -2.5839     5.1630    -0.5186 H       
  41 H41           -2.6444     3.7232    -1.5634 H       
  42 H42           -1.9569     3.6841     2.0949 H       
  43 H43           -0.1844     3.7242     1.9371 H       
  44 H44           -1.1474     5.1636     1.5256 H       
  45 H45            3.6023    -1.5334    -3.2615 H       
  46 H46            7.0459    -2.4378    -0.8903 H       
  47 H47            5.8440    -1.8495     1.1482 H       
  48 H48           -0.2465    -1.6100     2.0931 H       
  49 H49           -1.3866    -1.0264     4.1919 H       
  50 H50            1.7339     1.7321     5.1387 H       
  51 H51            2.8934     1.1518     3.0497 H       
  52 H52            5.2172    -2.8446    -6.6111 H       
  53 H53            6.2251    -3.8933    -5.5903 H       
  54 H54            4.9603    -1.2715    -4.7206 H       
  55 H55            4.3364    -2.8864    -4.3403 H       
  56 H56            7.5590    -1.1068    -2.5493 H       
  57 H57            9.3640    -1.7109    -3.9460 H       
  58 H58            8.5508    -3.2147    -3.4883 H       
  59 H59            8.2450    -3.7488    -5.6240 H       
  60 H60            9.1847    -2.3133    -6.0773 H       
  61 H61            7.8939    -0.1508    -6.2851 H       
  62 H62            6.1272    -0.2518    -6.3927 H       
  63 H63            5.8725    -0.0249    -4.1747 H       
  64 H64            7.5598     0.5211    -4.1705 H       
@<TRIPOS>BOND
   1    1    2 1
   2    1    3 2
   3    1    4 am
   4    2   10 1
   5    2   35 1
   6    2   36 1
   7    4    5 1
   8    4   37 1
   9    5    6 1
  10    5    7 1
  11    5   38 1
  12    6   39 1
  13    6   40 1
  14    6   41 1
  15    7   42 1
  16    7   43 1
  17    7   44 1
  18    8    9 2
  19    8   17 1
  20    9   10 1
  21    9   19 1
  22   10   11 am
  23   11   12 1
  24   11   18 2
  25   12   13 ar
  26   12   17 ar
  27   13   14 ar
  28   13   45 1
  29   14   15 ar
  30   14   29 1
  31   15   16 ar
  32   15   46 1
  33   16   17 ar
  34   16   47 1
  35   19   20 ar
  36   19   24 ar
  37   20   21 ar
  38   20   48 1
  39   21   22 ar
  40   21   49 1
  41   22   23 ar
  42   22   25 1
  43   23   24 ar
  44   23   50 1
  45   24   51 1
  46   26   27 1
  47   26   32 1
  48   26   33 1
  49   27   28 1
  50   27   52 1
  51   27   53 1
  52   28   29 1
  53   28   54 1
  54   28   55 1
  55   29   30 1
  56   30   31 1
  57   30   34 1
  58   30   56 1
  59   31   32 1
  60   31   57 1
  61   31   58 1
  62   32   59 1
  63   32   60 1
  64   33   34 1
  65   33   61 1
  66   33   62 1
  67   34   63 1
  68   34   64 1

#	End of record

