#	Name: ASD03731257
#	Creating user name:	WinNT
#	Creation time:	15. 06. 2019 20:45

#	Modifying user name:	WinNT
#	Modification time:	15. 06. 2019 20:45

#	Program:	/corina/corina34_cracker 3.40 0067  02.08.2006

@<TRIPOS>MOLECULE
ASD03731257
  54   59    0    0    0
SMALL
NO_CHARGES


@<TRIPOS>ATOM
   1 N1            -0.0162     1.3436     0.0094 N.am    
   2 C2             0.0559     0.0126     0.2094 C.2     
   3 O3             1.1397    -0.5295     0.3077 O.2     
   4 N4            -1.0735    -0.7173     0.3002 N.am    
   5 C5            -0.9952    -2.1639     0.5176 C.3     
   6 C6            -2.4081    -2.7472     0.5820 C.3     
   7 O7             2.5528    -7.0750     3.4717 O.3     
   8 C8             3.0237    -8.3609     3.9162 C.3     
   9 O9             1.8600    -8.9645     4.5116 O.3     
  10 C10            0.7903    -8.3988     3.8787 C.ar    
  11 C11            1.2168    -7.2365     3.2403 C.ar    
  12 C12           -0.5343    -8.7886     3.7935 C.ar    
  13 C13           -1.4489    -8.0255     3.0739 C.ar    
  14 C14           -1.0127    -6.8620     2.4474 C.ar    
  15 C15            0.3085    -6.4739     2.5254 C.ar    
  16 O16           -2.7780    -8.2371     2.8528 O.3     
  17 C17           -2.2198    -6.2529     1.7857 C.3     
  18 C18           -3.3920    -7.0036     2.4321 C.3     
  19 N19           -2.3298    -4.1939     0.7993 N.am    
  20 C20           -2.3078    -4.7718     2.0169 C.2     
  21 C21           -2.2004    -6.4223     0.2954 C.ar    
  22 C22           -2.1327    -7.5173    -0.5368 C.ar    
  23 C23           -2.1347    -7.3455    -1.9096 C.ar    
  24 C24           -2.2041    -6.0717    -2.4437 C.ar    
  25 C25           -2.2711    -4.9717    -1.6143 C.ar    
  26 C26           -2.2700    -5.1352    -0.2312 C.ar    
  27 O27           -2.3511    -4.2064     3.0891 O.2     
  28 C28            1.1509     2.1158     0.0124 C.ar    
  29 C29            2.3295     1.5967    -0.5066 C.ar    
  30 C30            3.4809     2.3618    -0.5030 C.ar    
  31 C31            3.4595     3.6438     0.0174 C.ar    
  32 C32            2.2862     4.1634     0.5352 C.ar    
  33 C33            1.1308     3.4044     0.5291 C.ar    
  34 Cl34           2.2635     5.7722     1.1871 Cl      
  35 Cl35           4.9550     1.7133    -1.1512 Cl      
  36 H36           -0.8766     1.7656    -0.1405 H       
  37 H37           -1.9382    -0.2847     0.2218 H       
  38 H38           -0.4486    -2.6258    -0.3046 H       
  39 H39           -0.4768    -2.3629     1.4556 H       
  40 H40           -2.9547    -2.2854     1.4042 H       
  41 H41           -2.9265    -2.5483    -0.3560 H       
  42 H42            3.3727    -8.9541     3.0710 H       
  43 H43            3.8155    -8.2440     4.6562 H       
  44 H44           -0.8607    -9.6911     4.2887 H       
  45 H45            0.6355    -5.5728     2.0278 H       
  46 H46           -4.1800    -7.1924     1.7030 H       
  47 H47           -3.7797    -6.4522     3.2887 H       
  48 H48           -2.0784    -8.5111    -0.1175 H       
  49 H49           -2.0825    -8.2042    -2.5626 H       
  50 H50           -2.2055    -5.9376    -3.5154 H       
  51 H51           -2.3245    -3.9801    -2.0389 H       
  52 H52            2.3468     0.5961    -0.9125 H       
  53 H53            4.3602     4.2398     0.0196 H       
  54 H54            0.2143     3.8119     0.9296 H       
@<TRIPOS>BOND
   1    1    2 am
   2    1   28 1
   3    1   36 1
   4    2    3 2
   5    2    4 am
   6    4    5 1
   7    4   37 1
   8    5    6 1
   9    5   38 1
  10    5   39 1
  11    6   19 1
  12    6   40 1
  13    6   41 1
  14    7    8 1
  15    7   11 1
  16    8    9 1
  17    8   42 1
  18    8   43 1
  19    9   10 1
  20   10   11 ar
  21   10   12 ar
  22   11   15 ar
  23   12   13 ar
  24   12   44 1
  25   13   14 ar
  26   13   16 1
  27   14   15 ar
  28   14   17 1
  29   15   45 1
  30   16   18 1
  31   17   18 1
  32   17   20 1
  33   17   21 1
  34   18   46 1
  35   18   47 1
  36   19   20 am
  37   19   26 1
  38   20   27 2
  39   21   22 ar
  40   21   26 ar
  41   22   23 ar
  42   22   48 1
  43   23   24 ar
  44   23   49 1
  45   24   25 ar
  46   24   50 1
  47   25   26 ar
  48   25   51 1
  49   28   29 ar
  50   28   33 ar
  51   29   30 ar
  52   29   52 1
  53   30   31 ar
  54   30   35 1
  55   31   32 ar
  56   31   53 1
  57   32   33 ar
  58   32   34 1
  59   33   54 1

#	End of record

