#	Name: ASD08170374
#	Creating user name:	WinNT
#	Creation time:	15. 06. 2019 21:17

#	Modifying user name:	WinNT
#	Modification time:	15. 06. 2019 21:17

#	Program:	/corina/corina34_cracker 3.40 0067  02.08.2006

@<TRIPOS>MOLECULE
ASD08170374
  69   72    0    0    0
SMALL
NO_CHARGES


@<TRIPOS>ATOM
   1 C1            -0.0155     1.2910     0.0091 C.2     
   2 N2             0.0021    -0.0041     0.0020 N.2     
   3 N3            -1.1192    -0.5842     0.0096 N.2     
   4 C4            -2.1834     0.1604     0.0237 C.2     
   5 S5            -1.7028     1.8047     0.0357 S.3     
   6 C6             1.1892     2.1964     0.0025 C.3     
   7 C7             4.5555     4.7703    -3.3985 C.3     
   8 C8             4.8121     4.9823    -4.8682 C.2     
   9 C9             5.9134     5.8179    -5.4897 C.3     
  10 C10            5.6765     5.6583    -6.9786 C.2     
  11 N11            4.6389     4.8796    -7.0906 N.2     
  12 N12            4.1415     4.4842    -5.8533 N.2     
  13 N13            6.4064     6.2202    -7.9998 N.am    
  14 N14           -3.4954    -0.3008     0.0334 N.am    
  15 C15            6.0668     5.9806    -9.2819 C.2     
  16 O16            5.1176     5.2696    -9.5349 O.2     
  17 C17            6.8666     6.5963   -10.4009 C.3     
  18 C18            6.2844     6.1747   -11.7255 C.ar    
  19 C19           -3.7441    -1.6254     0.0287 C.2     
  20 C20           -5.1658    -2.1251     0.0391 C.3     
  21 O21           -2.8238    -2.4152     0.0161 O.2     
  22 C22           -5.1686    -3.6321     0.0313 C.ar    
  23 C23            1.5828     2.5110    -1.4422 C.3     
  24 C24            3.3418     3.8560    -3.2193 C.3     
  25 S25            3.0330     3.6007    -1.4501 S.3     
  26 C26           -5.2852    -4.3167    -1.1637 C.ar    
  27 C27            5.2276     6.8787   -12.2712 C.ar    
  28 C28            6.8111     5.0872   -12.3974 C.ar    
  29 C29            6.2771     4.7006   -13.6122 C.ar    
  30 C30            5.2160     5.4011   -14.1552 C.ar    
  31 C31            4.6931     6.4916   -13.4862 C.ar    
  32 C32           -5.2878    -5.6992    -1.1710 C.ar    
  33 C33           -5.1734    -6.3968     0.0168 C.ar    
  34 C34           -5.0559    -5.7120     1.2120 C.ar    
  35 C35           -5.0489    -4.3299     1.2188 C.ar    
  36 C36            4.6575     8.0678   -11.5418 C.3     
  37 O37            3.5821     8.6223   -12.3021 O.3     
  38 C38           -4.9208    -3.5834     2.5217 C.3     
  39 O39           -4.8220    -4.5178     3.5983 O.3     
  40 H40            0.9501     3.1232     0.5240 H       
  41 H41            2.0193     1.7002     0.5054 H       
  42 H42            5.4296     4.3078    -2.9400 H       
  43 H43            4.3604     5.7307    -2.9214 H       
  44 H44            5.8157     6.8628    -5.1950 H       
  45 H45            6.8934     5.4294    -5.2127 H       
  46 H46            7.1657     6.7889    -7.7974 H       
  47 H47           -4.2314     0.3309     0.0435 H       
  48 H48            6.8314     7.6825   -10.3178 H       
  49 H49            7.9014     6.2602   -10.3355 H       
  50 H50           -5.6707    -1.7656     0.9357 H       
  51 H51           -5.6871    -1.7562    -0.8442 H       
  52 H52            1.8219     1.5842    -1.9637 H       
  53 H53            0.7527     3.0071    -1.9450 H       
  54 H54            2.4677     4.3185    -3.6778 H       
  55 H55            3.5369     2.8955    -3.6964 H       
  56 H56           -5.3746    -3.7717    -2.0918 H       
  57 H57            7.6400     4.5401   -11.9732 H       
  58 H58            6.6890     3.8515   -14.1374 H       
  59 H59            4.7990     5.0992   -15.1046 H       
  60 H60            3.8643     7.0388   -13.9104 H       
  61 H61           -5.3796    -6.2342    -2.1047 H       
  62 H62           -5.1762    -7.4767     0.0112 H       
  63 H63           -4.9668    -6.2570     2.1402 H       
  64 H64            4.2880     7.7526   -10.5660 H       
  65 H65            5.4351     8.8202   -11.4101 H       
  66 H66            3.1667     9.3930   -11.8917 H       
  67 H67           -4.0262    -2.9611     2.4975 H       
  68 H68           -5.7980    -2.9530     2.6671 H       
  69 H69           -4.7368    -4.1067     4.4694 H       
@<TRIPOS>BOND
   1    1    2 2
   2    1    6 1
   3    1    5 1
   4    2    3 1
   5    3    4 2
   6    4    5 1
   7    4   14 1
   8    6   23 1
   9    6   40 1
  10    6   41 1
  11    7    8 1
  12    7   24 1
  13    7   42 1
  14    7   43 1
  15    8    9 1
  16    8   12 2
  17    9   10 1
  18    9   44 1
  19    9   45 1
  20   10   11 2
  21   10   13 1
  22   11   12 1
  23   13   15 am
  24   13   46 1
  25   14   19 am
  26   14   47 1
  27   15   16 2
  28   15   17 1
  29   17   18 1
  30   17   48 1
  31   17   49 1
  32   18   27 ar
  33   18   28 ar
  34   19   20 1
  35   19   21 2
  36   20   22 1
  37   20   50 1
  38   20   51 1
  39   22   26 ar
  40   22   35 ar
  41   23   25 1
  42   23   52 1
  43   23   53 1
  44   24   25 1
  45   24   54 1
  46   24   55 1
  47   26   32 ar
  48   26   56 1
  49   27   36 1
  50   27   31 ar
  51   28   29 ar
  52   28   57 1
  53   29   30 ar
  54   29   58 1
  55   30   31 ar
  56   30   59 1
  57   31   60 1
  58   32   33 ar
  59   32   61 1
  60   33   34 ar
  61   33   62 1
  62   34   35 ar
  63   34   63 1
  64   35   38 1
  65   36   37 1
  66   36   64 1
  67   36   65 1
  68   37   66 1
  69   38   39 1
  70   38   67 1
  71   38   68 1
  72   39   69 1

#	End of record

