#	Name: ASD01813873
#	Creating user name:	WinNT
#	Creation time:	15. 06. 2019 19:31

#	Modifying user name:	WinNT
#	Modification time:	15. 06. 2019 19:31

#	Program:	/corina/corina34_cracker 3.40 0067  02.08.2006

@<TRIPOS>MOLECULE
ASD01813873
  52   55    0    0    0
SMALL
NO_CHARGES


@<TRIPOS>ATOM
   1 C1             0.0658     1.4980    -0.0181 C.2     
   2 C2             0.0553     0.0966    -0.0283 C.2     
   3 C3             1.2379    -0.5836    -0.0358 C.2     
   4 C4             2.4464     0.1325    -0.0331 C.2     
   5 N5             2.4271     1.5008    -0.0227 N.am    
   6 C6             1.2392     2.1699    -0.0156 C.2     
   7 C7             3.6630    -0.5642    -0.0407 C.2     
   8 C8             4.8428     0.1218    -0.0378 C.2     
   9 C9             4.8191     1.5288    -0.0276 C.2     
  10 C10            3.5796     2.2006    -0.0197 C.2     
  11 O11            3.5497     3.4196    -0.0113 O.2     
  12 C12            6.0711     2.2886    -0.0238 C.2     
  13 O13            6.0416     3.6372    -0.0140 O.3     
  14 O14            7.1376     1.7036    -0.0294 O.2     
  15 C15            3.6680    -2.0712    -0.0516 C.3     
  16 N16            3.7874    -2.5505    -1.4350 N.3     
  17 C17            4.0335    -3.9988    -1.4712 C.3     
  18 C18            4.0722    -4.4708    -2.9266 C.3     
  19 N19            5.1256    -3.7424    -3.6473 N.3     
  20 C20            4.8795    -2.2940    -3.6111 C.3     
  21 C21            4.8408    -1.8220    -2.1557 C.3     
  22 C22            5.2394    -4.1990    -4.9654 C.ar    
  23 C23            5.6745    -5.4979    -5.2195 C.ar    
  24 C24            5.7852    -5.9444    -6.5259 C.ar    
  25 C25            5.4648    -5.1018    -7.5745 C.ar    
  26 C26            5.0329    -3.8127    -7.3233 C.ar    
  27 C27            4.9138    -3.3614    -6.0222 C.ar    
  28 O28            5.9902    -6.3253    -4.1872 O.3     
  29 C29            6.4292    -7.6431    -4.5230 C.3     
  30 H30           -0.8665     2.0431    -0.0166 H       
  31 H31           -0.8816    -0.4406    -0.0299 H       
  32 H32            1.2448    -1.6635    -0.0433 H       
  33 H33            1.2354     3.2499    -0.0075 H       
  34 H34            5.7834    -0.4088    -0.0429 H       
  35 H35            6.8934     4.0950    -0.0119 H       
  36 H36            4.5122    -2.4359     0.5335 H       
  37 H37            2.7387    -2.4407     0.3820 H       
  38 H38            4.9880    -4.2176    -0.9925 H       
  39 H39            3.2337    -4.5169    -0.9421 H       
  40 H40            4.2834    -5.5397    -2.9568 H       
  41 H41            3.1085    -4.2767    -3.3976 H       
  42 H42            5.6793    -1.7759    -4.1402 H       
  43 H43            3.9250    -2.0752    -4.0898 H       
  44 H44            4.6296    -0.7531    -2.1255 H       
  45 H45            5.8045    -2.0161    -1.6847 H       
  46 H46            6.1223    -6.9508    -6.7257 H       
  47 H47            5.5525    -5.4516    -8.5926 H       
  48 H48            4.7837    -3.1582    -8.1454 H       
  49 H49            4.5758    -2.3541    -5.8287 H       
  50 H50            5.6455    -8.1561    -5.0804 H       
  51 H51            7.3292    -7.5814    -5.1347 H       
  52 H52            6.6477    -8.1969    -3.6099 H       
@<TRIPOS>BOND
   1    1    2 1
   2    1    6 2
   3    1   30 1
   4    2    3 2
   5    2   31 1
   6    3    4 1
   7    3   32 1
   8    4    5 1
   9    4    7 2
  10    5    6 1
  11    5   10 am
  12    6   33 1
  13    7    8 1
  14    7   15 1
  15    8    9 2
  16    8   34 1
  17    9   10 1
  18    9   12 1
  19   10   11 2
  20   12   13 1
  21   12   14 2
  22   13   35 1
  23   15   16 1
  24   15   36 1
  25   15   37 1
  26   16   17 1
  27   16   21 1
  28   17   18 1
  29   17   38 1
  30   17   39 1
  31   18   19 1
  32   18   40 1
  33   18   41 1
  34   19   20 1
  35   19   22 1
  36   20   21 1
  37   20   42 1
  38   20   43 1
  39   21   44 1
  40   21   45 1
  41   22   23 ar
  42   22   27 ar
  43   23   24 ar
  44   23   28 1
  45   24   25 ar
  46   24   46 1
  47   25   26 ar
  48   25   47 1
  49   26   27 ar
  50   26   48 1
  51   27   49 1
  52   28   29 1
  53   29   50 1
  54   29   51 1
  55   29   52 1

#	End of record

