#	Name: ASD01670005
#	Creating user name:	WinNT
#	Creation time:	15. 06. 2019 19:22

#	Modifying user name:	WinNT
#	Modification time:	15. 06. 2019 19:22

#	Program:	/corina/corina34_cracker 3.40 0067  02.08.2006

@<TRIPOS>MOLECULE
ASD01670005
  20   21    0    0    0
SMALL
NO_CHARGES


@<TRIPOS>ATOM
   1 C1            -0.0184     1.5028     0.0103 C.3     
   2 C2             0.0021    -0.0041     0.0020 C.2     
   3 O3             1.0565    -0.5939    -0.0112 O.2     
   4 N4             2.1058     2.2962    -1.0515 N.2     
   5 C5             1.3954     2.0244    -0.0004 C.2     
   6 C6             2.2208     2.3179     1.1748 C.ar    
   7 C7             2.0075     2.2259     2.5518 C.ar    
   8 C8             3.4556     2.7779     0.6874 C.ar    
   9 C9             3.0017     2.5841     3.4183 C.ar    
  10 C10            4.4530     3.1374     1.5853 C.ar    
  11 C11            4.2222     3.0393     2.9407 C.ar    
  12 O12            3.3809     2.7629    -0.6587 O.3     
  13 O13           -1.1511    -0.6910     0.0093 O.3     
  14 H14           -0.5455     1.8639    -0.8728 H       
  15 H15           -0.5286     1.8543     0.9071 H       
  16 H16            1.0597     1.8731     2.9307 H       
  17 H17            2.8359     2.5126     4.4831 H       
  18 H18            5.4063     3.4922     1.2224 H       
  19 H19            4.9985     3.3195     3.6373 H       
  20 H20           -1.0874    -1.6558     0.0035 H       
@<TRIPOS>BOND
   1    1    2 1
   2    1    5 1
   3    1   14 1
   4    1   15 1
   5    2    3 2
   6    2   13 1
   7    4    5 2
   8    4   12 1
   9    5    6 1
  10    6    7 ar
  11    6    8 ar
  12    7    9 ar
  13    7   16 1
  14    8   10 ar
  15    8   12 1
  16    9   11 ar
  17    9   17 1
  18   10   11 ar
  19   10   18 1
  20   11   19 1
  21   13   20 1

#	End of record

