#	Name: ASD02560239
#	Creating user name:	WinNT
#	Creation time:	15. 06. 2019 20:24

#	Modifying user name:	WinNT
#	Modification time:	15. 06. 2019 20:24

#	Program:	/corina/corina34_cracker 3.40 0067  02.08.2006

@<TRIPOS>MOLECULE
ASD02560239
  36   38    0    0    0
SMALL
NO_CHARGES


@<TRIPOS>ATOM
   1 N1             0.0161     1.2842     0.2860 N.2     
   2 N2             0.0215     0.0007     0.1974 N.2     
   3 C3             1.2578    -0.4215     0.0925 C.2     
   4 O4             2.0539     0.6635     0.1184 O.3     
   5 C5             1.2381     1.7285     0.2416 C.2     
   6 N6             1.6684    -1.7379    -0.0225 N.pl3   
   7 C7             0.7386    -2.7696     0.0862 C.ar    
   8 C8            -0.3910    -2.6051     0.8823 C.ar    
   9 C9            -1.3118    -3.6225     0.9920 C.ar    
  10 C10           -1.1113    -4.8219     0.3023 C.ar    
  11 C11            0.0244    -4.9836    -0.4969 C.ar    
  12 C12            0.9386    -3.9603    -0.6060 C.ar    
  13 C13            1.0499     3.9353    -0.8312 C.ar    
  14 C14            1.8622     4.5729    -1.7528 C.ar    
  15 C15            1.2972     5.2737    -2.8050 C.ar    
  16 C16           -0.0773     5.3366    -2.9351 C.ar    
  17 C17           -0.8894     4.7007    -2.0152 C.ar    
  18 C18           -0.3265     3.9942    -0.9657 C.ar    
  19 F19           -1.1205     3.3722    -0.0669 F       
  20 F20            3.2059     4.5120    -1.6256 F       
  21 C21            1.6636     3.1723     0.3144 C.3     
  22 C22            1.1938     3.7763     1.6393 C.3     
  23 C23           -2.0668    -5.8826     0.4144 C.1     
  24 N24           -2.8249    -6.7240     0.5034 N.1     
  25 H25            2.6036    -1.9424    -0.1789 H       
  26 H26           -0.5453    -1.6783     1.4149 H       
  27 H27           -2.1878    -3.4944     1.6105 H       
  28 H28            0.1822    -5.9089    -1.0311 H       
  29 H29            1.8162    -4.0846    -1.2232 H       
  30 H30            1.9308     5.7717    -3.5240 H       
  31 H31           -0.5171     5.8834    -3.7561 H       
  32 H32           -1.9634     4.7511    -2.1175 H       
  33 H33            2.7501     3.2345     0.2517 H       
  34 H34            1.6377     3.2245     2.4679 H       
  35 H35            1.5016     4.8206     1.6919 H       
  36 H36            0.1074     3.7141     1.7019 H       
@<TRIPOS>BOND
   1    1    2 1
   2    1    5 2
   3    2    3 2
   4    3    4 1
   5    3    6 1
   6    4    5 1
   7    5   21 1
   8    6    7 1
   9    6   25 1
  10    7    8 ar
  11    7   12 ar
  12    8    9 ar
  13    8   26 1
  14    9   10 ar
  15    9   27 1
  16   10   11 ar
  17   10   23 1
  18   11   12 ar
  19   11   28 1
  20   12   29 1
  21   13   14 ar
  22   13   21 1
  23   13   18 ar
  24   14   15 ar
  25   14   20 1
  26   15   16 ar
  27   15   30 1
  28   16   17 ar
  29   16   31 1
  30   17   18 ar
  31   17   32 1
  32   18   19 1
  33   21   22 1
  34   21   33 1
  35   22   34 1
  36   22   35 1
  37   22   36 1
  38   23   24 3

#	End of record

