#	Name: ASD01811743
#	Creating user name:	WinNT
#	Creation time:	15. 06. 2019 19:27

#	Modifying user name:	WinNT
#	Modification time:	15. 06. 2019 19:27

#	Program:	/corina/corina34_cracker 3.40 0067  02.08.2006

@<TRIPOS>MOLECULE
ASD01811743
  60   64    0    0    0
SMALL
NO_CHARGES


@<TRIPOS>ATOM
   1 C1            -0.0167     1.3805     0.0096 C.ar    
   2 C2             0.0021    -0.0041     0.0020 C.ar    
   3 C3            -1.1845    -0.7161     0.0090 C.ar    
   4 C4            -2.3942    -0.0535     0.0241 C.ar    
   5 C5            -2.4213     1.3425     0.0323 C.ar    
   6 C6            -1.2177     2.0512     0.0304 C.ar    
   7 C7             1.2777     2.1522     0.0014 C.3     
   8 C8             1.3184    -0.7376    -0.0144 C.3     
   9 C9            -1.1549    -2.2228    -0.0004 C.3     
  10 C10           -1.0078    -2.7311     1.4107 C.ar    
  11 C11           -2.1295    -2.8896     2.2078 C.ar    
  12 C12           -1.9987    -3.3561     3.5029 C.ar    
  13 C13           -0.7368    -3.6664     4.0039 C.ar    
  14 C14            0.3875    -3.5047     3.1966 C.ar    
  15 C15            0.2462    -3.0433     1.9036 C.ar    
  16 F16           -3.3524    -2.5875     1.7197 F       
  17 C17           -0.5899    -4.1671     5.3933 C.2     
  18 C18            0.6196    -4.5172     6.0244 C.2     
  19 C19            0.3292    -4.9241     7.2793 C.2     
  20 N20           -1.0081    -4.8389     7.4462 N.pl3   
  21 N21           -1.5663    -4.3572     6.2552 N.2     
  22 C22           -1.7464    -5.1853     8.6632 C.3     
  23 C23           -3.5309     2.3149     0.0477 C.2     
  24 N24           -3.0504     3.5703     0.0501 N.am    
  25 C25           -1.5841     3.5142     0.0402 C.3     
  26 O26           -4.7107     2.0226     0.0563 O.2     
  27 C27           -3.8575     4.7928     0.0640 C.3     
  28 C28           -4.7392     4.8280     1.3246 C.3     
  29 C29           -6.2027     4.8624     0.8379 C.3     
  30 C30           -6.1454     4.2461    -0.5819 C.3     
  31 C31           -4.8159     4.8071    -1.1447 C.3     
  32 O32           -4.4506     5.9989     2.0913 O.3     
  33 H33           -3.3180    -0.6130     0.0291 H       
  34 H34            1.5800     2.3437    -1.0282 H       
  35 H35            1.1390     3.0999     0.5217 H       
  36 H36            2.0504     1.5710     0.5048 H       
  37 H37            1.6456    -0.9199     1.0092 H       
  38 H38            1.1977    -1.6891    -0.5323 H       
  39 H39            2.0641    -0.1342    -0.5322 H       
  40 H40           -2.0831    -2.6018    -0.4281 H       
  41 H41           -0.3118    -2.5659    -0.5999 H       
  42 H42           -2.8731    -3.4794     4.1246 H       
  43 H43            1.3680    -3.7440     3.5810 H       
  44 H44            1.1175    -2.9180     1.2780 H       
  45 H45            1.6042    -4.4693     5.5832 H       
  46 H46            1.0413    -5.2590     8.0190 H       
  47 H47           -1.8259    -4.3061     9.3026 H       
  48 H48           -2.7448    -5.5319     8.3963 H       
  49 H49           -1.2179    -5.9756     9.1963 H       
  50 H50           -1.1849     3.9949     0.9333 H       
  51 H51           -1.1966     4.0028    -0.8538 H       
  52 H52           -3.2095     5.6689     0.0371 H       
  53 H53           -4.5666     3.9354     1.9260 H       
  54 H54           -6.8358     4.2605     1.4899 H       
  55 H55           -6.5660     5.8892     0.7938 H       
  56 H56           -6.1141     3.1578    -0.5296 H       
  57 H57           -6.9911     4.5808    -1.1827 H       
  58 H58           -4.9552     5.8249    -1.5091 H       
  59 H59           -4.4370     4.1649    -1.9396 H       
  60 H60           -4.9751     6.0787     2.8999 H       
@<TRIPOS>BOND
   1    1    2 ar
   2    1    7 1
   3    1    6 ar
   4    2    3 ar
   5    2    8 1
   6    3    4 ar
   7    3    9 1
   8    4    5 ar
   9    4   33 1
  10    5    6 ar
  11    5   23 1
  12    6   25 1
  13    7   34 1
  14    7   35 1
  15    7   36 1
  16    8   37 1
  17    8   38 1
  18    8   39 1
  19    9   10 1
  20    9   40 1
  21    9   41 1
  22   10   11 ar
  23   10   15 ar
  24   11   12 ar
  25   11   16 1
  26   12   13 ar
  27   12   42 1
  28   13   14 ar
  29   13   17 1
  30   14   15 ar
  31   14   43 1
  32   15   44 1
  33   17   18 1
  34   17   21 2
  35   18   19 2
  36   18   45 1
  37   19   20 1
  38   19   46 1
  39   20   21 1
  40   20   22 1
  41   22   47 1
  42   22   48 1
  43   22   49 1
  44   23   24 am
  45   23   26 2
  46   24   25 1
  47   24   27 1
  48   25   50 1
  49   25   51 1
  50   27   28 1
  51   27   31 1
  52   27   52 1
  53   28   29 1
  54   28   32 1
  55   28   53 1
  56   29   30 1
  57   29   54 1
  58   29   55 1
  59   30   31 1
  60   30   56 1
  61   30   57 1
  62   31   58 1
  63   31   59 1
  64   32   60 1

#	End of record

