#	Name: ASD01948237
#	Creating user name:	WinNT
#	Creation time:	15. 06. 2019 20:14

#	Modifying user name:	WinNT
#	Modification time:	15. 06. 2019 20:14

#	Program:	/corina/corina34_cracker 3.40 0067  02.08.2006

@<TRIPOS>MOLECULE
ASD01948237
  32   34    0    0    0
SMALL
NO_CHARGES


@<TRIPOS>ATOM
   1 C1            -0.0167     1.3797     0.0096 C.ar    
   2 C2             0.0021    -0.0041     0.0020 C.ar    
   3 C3             1.2076    -0.6821    -0.0132 C.ar    
   4 C4             2.3976     0.0202    -0.0208 C.ar    
   5 C5             2.3836     1.4076    -0.0132 C.ar    
   6 C6             1.1708     2.0879     0.0021 C.ar    
   7 C7             4.0431     2.4174    -2.5181 C.ar    
   8 C8             4.2817     2.5444    -1.1559 C.ar    
   9 N9             3.5900     2.1224    -0.0205 N.am    
  10 C10            4.9362     2.9565    -3.4283 C.ar    
  11 C11            6.0681     3.6223    -2.9852 C.ar    
  12 C12            6.3133     3.7535    -1.6280 C.ar    
  13 C13            5.4201     3.2146    -0.7087 C.ar    
  14 N14            5.3868     3.1796     0.6865 N.am    
  15 C15            4.2774     2.5184     1.0672 C.2     
  16 O16            3.9466     2.3100     2.2197 O.2     
  17 Br17          -1.6237    -0.9699     0.0130 Br      
  18 F18            4.7037     2.8327    -4.7533 F       
  19 F19            1.1528     3.4388     0.0091 F       
  20 F20            2.9440     1.7640    -2.9544 F       
  21 N21            7.0183     4.1949    -3.9653 N.pl3   
  22 O22            6.8718     5.3380    -4.3594 O.2     
  23 O23            7.9467     3.5228    -4.3776 O.2     
  24 O24            7.4251     4.4070    -1.1960 O.3     
  25 C25            7.3071     5.8145    -0.9787 C.3     
  26 H26           -0.9594     1.9066     0.0170 H       
  27 H27            1.2188    -1.7620    -0.0187 H       
  28 H28            3.3381    -0.5106    -0.0323 H       
  29 H29            6.0495     3.5659     1.2802 H       
  30 H30            6.5445     6.0027    -0.2230 H       
  31 H31            8.2631     6.2108    -0.6367 H       
  32 H32            7.0235     6.3035    -1.9107 H       
@<TRIPOS>BOND
   1    1    2 ar
   2    1    6 ar
   3    1   26 1
   4    2    3 ar
   5    2   17 1
   6    3    4 ar
   7    3   27 1
   8    4    5 ar
   9    4   28 1
  10    5    6 ar
  11    5    9 1
  12    6   19 1
  13    7    8 ar
  14    7   10 ar
  15    7   20 1
  16    8    9 1
  17    8   13 ar
  18    9   15 am
  19   10   11 ar
  20   10   18 1
  21   11   12 ar
  22   11   21 1
  23   12   13 ar
  24   12   24 1
  25   13   14 1
  26   14   15 am
  27   14   29 1
  28   15   16 2
  29   21   22 2
  30   21   23 2
  31   24   25 1
  32   25   30 1
  33   25   31 1
  34   25   32 1

#	End of record

