#	Name: ASD03110003
#	Creating user name:	WinNT
#	Creation time:	15. 06. 2019 20:33

#	Modifying user name:	WinNT
#	Modification time:	15. 06. 2019 20:33

#	Program:	/corina/corina34_cracker 3.40 0067  02.08.2006

@<TRIPOS>MOLECULE
ASD03110003
  40   43    0    0    0
SMALL
NO_CHARGES


@<TRIPOS>ATOM
   1 C1            -0.0167     1.3837     0.0096 C.ar    
   2 C2             0.0021    -0.0041     0.0020 C.ar    
   3 C3             1.2033    -0.6765    -0.0126 C.ar    
   4 C4             2.4013     0.0355    -0.0203 C.ar    
   5 C5             2.3914     1.4362    -0.0132 C.ar    
   6 C6             1.1424     2.0967     0.0024 C.ar    
   7 S7             4.0773    -0.5072    -0.0393 S.3     
   8 C8             4.6286     1.1626    -0.0363 C.2     
   9 N9             3.6194     1.9666    -0.0225 N.2     
  10 C10            6.0454     1.5848    -0.0476 C.ar    
  11 C11            6.3691     2.9434    -0.0439 C.ar    
  12 C12            7.0599     0.6249    -0.0560 C.ar    
  13 C13            8.3792     1.0177    -0.0655 C.ar    
  14 C14            8.7033     2.3768    -0.0672 C.ar    
  15 C15            7.6881     3.3368    -0.0544 C.ar    
  16 C16           10.1189     2.7987    -0.0770 C.2     
  17 O17           11.0022     1.9631    -0.0835 O.2     
  18 N18           10.4314     4.1097    -0.0787 N.am    
  19 N19           11.7740     4.5098    -0.0879 N.2     
  20 C20           12.0750     5.7725    -0.0895 C.2     
  21 C21           13.4878     6.1935    -0.0992 C.ar    
  22 N22           14.4496     5.2761    -0.1063 N.ar    
  23 C23           13.8059     7.5536    -0.1067 C.ar    
  24 C24           15.1363     7.9320    -0.1157 C.ar    
  25 C25           16.1079     6.9403    -0.1171 C.ar    
  26 C26           15.7231     5.6119    -0.1150 C.ar    
  27 H27           -0.9630     1.9042     0.0169 H       
  28 H28           -0.9259    -0.5566     0.0079 H       
  29 H29            1.2173    -1.7564    -0.0179 H       
  30 H30            1.1074     3.1761     0.0082 H       
  31 H31            5.5844     3.6854    -0.0333 H       
  32 H32            6.8093    -0.4256    -0.0546 H       
  33 H33            9.1636     0.2754    -0.0713 H       
  34 H34            7.9383     4.3875    -0.0561 H       
  35 H35            9.7267     4.7763    -0.0735 H       
  36 H36           11.2904     6.5147    -0.0837 H       
  37 H37           13.0244     8.2990    -0.1057 H       
  38 H38           15.4131     8.9759    -0.1220 H       
  39 H39           17.1553     7.2039    -0.1241 H       
  40 H40           16.4775     4.8390    -0.1157 H       
@<TRIPOS>BOND
   1    1    2 ar
   2    1    6 ar
   3    1   27 1
   4    2    3 ar
   5    2   28 1
   6    3    4 ar
   7    3   29 1
   8    4    5 ar
   9    4    7 1
  10    5    6 ar
  11    5    9 1
  12    6   30 1
  13    7    8 1
  14    8    9 2
  15    8   10 1
  16   10   11 ar
  17   10   12 ar
  18   11   15 ar
  19   11   31 1
  20   12   13 ar
  21   12   32 1
  22   13   14 ar
  23   13   33 1
  24   14   15 ar
  25   14   16 1
  26   15   34 1
  27   16   17 2
  28   16   18 am
  29   18   19 1
  30   18   35 1
  31   19   20 2
  32   20   21 1
  33   20   36 1
  34   21   22 ar
  35   21   23 ar
  36   22   26 ar
  37   23   24 ar
  38   23   37 1
  39   24   25 ar
  40   24   38 1
  41   25   26 ar
  42   25   39 1
  43   26   40 1

#	End of record

