#	Name: ASD01122033
#	Creating user name:	WinNT
#	Creation time:	15. 06. 2019 18:59

#	Modifying user name:	WinNT
#	Modification time:	15. 06. 2019 18:59

#	Program:	/corina/corina34_cracker 3.40 0067  02.08.2006

@<TRIPOS>MOLECULE
ASD01122033
  43   45    0    0    0
SMALL
NO_CHARGES


@<TRIPOS>ATOM
   1 N1            -0.0545     1.2707     0.4500 N.ar    
   2 C2            -0.0242    -0.0462     0.3647 C.ar    
   3 N3             1.1002    -0.7205     0.2351 N.ar    
   4 C4             2.2664    -0.0892     0.1846 C.ar    
   5 C5             2.2893     1.3134     0.2713 C.ar    
   6 C6             1.0630     1.9889     0.4088 C.ar    
   7 N7             3.5811    -0.4890     0.0576 N.am    
   8 C8             4.3561     0.6542     0.0697 C.2     
   9 N9             3.5817     1.7066     0.1960 N.2     
  10 N10            1.0212     3.3695     0.4986 N.pl3   
  11 P11            9.3883    -1.0173     0.0481 P.3     
  12 O12            9.9148    -1.0298     1.5236 O.co2   
  13 O13           10.5040    -0.4594    -0.8998 O.co2   
  14 O14            9.0159    -2.4759    -0.3858 O.co2   
  15 O15            5.2006    -1.9704    -0.2613 O.2     
  16 C16            4.0253    -1.7563    -0.0566 C.2     
  17 C17            3.0606    -2.9071     0.0701 C.3     
  18 O18            3.5210    -3.8054     1.0816 O.3     
  19 C19            2.9706    -3.6467    -1.2663 C.3     
  20 O20            2.4287    -2.7730    -2.2587 O.3     
  21 C21            2.0633    -4.8690    -1.1126 C.3     
  22 O22            2.6052    -5.7428    -0.1202 O.3     
  23 C23            1.9734    -5.6086    -2.4490 C.3     
  24 O24            1.0361    -6.6815    -2.3374 O.3     
  25 C25            5.8207     0.6872    -0.0416 C.2     
  26 C26            6.5785     1.7870    -0.3180 C.2     
  27 C27            7.9192     1.3624    -0.3280 C.2     
  28 C28            7.9183     0.0398    -0.0606 C.2     
  29 O29            6.6508    -0.3631     0.1174 O.3     
  30 H30           -0.9558    -0.5913     0.4028 H       
  31 H31            1.8437     3.8827     0.4670 H       
  32 H32            0.1694     3.8238     0.5932 H       
  33 H33            2.0758    -2.5274     0.3422 H       
  34 H34            4.3936    -4.1827     0.9050 H       
  35 H35            3.9663    -3.9693    -1.5707 H       
  36 H36            1.5752    -2.3867    -2.0190 H       
  37 H37            1.0677    -4.5465    -0.8081 H       
  38 H38            3.4918    -6.0696    -0.3257 H       
  39 H39            1.6441    -4.9178    -3.2251 H       
  40 H40            2.9534    -6.0080    -2.7099 H       
  41 H41            0.9279    -7.1953    -3.1495 H       
  42 H42            6.2187     2.7898    -0.4953 H       
  43 H43            8.7862     1.9787    -0.5151 H       
@<TRIPOS>BOND
   1    1    2 ar
   2    1    6 ar
   3    2    3 ar
   4    2   30 1
   5    3    4 ar
   6    4    5 ar
   7    4    7 1
   8    5    6 ar
   9    5    9 1
  10    6   10 1
  11    7    8 1
  12    7   16 am
  13    8    9 2
  14    8   25 1
  15   10   31 1
  16   10   32 1
  17   11   12 ar
  18   11   13 ar
  19   11   14 ar
  20   11   28 1
  21   15   16 2
  22   16   17 1
  23   17   18 1
  24   17   19 1
  25   17   33 1
  26   18   34 1
  27   19   20 1
  28   19   21 1
  29   19   35 1
  30   20   36 1
  31   21   22 1
  32   21   23 1
  33   21   37 1
  34   22   38 1
  35   23   24 1
  36   23   39 1
  37   23   40 1
  38   24   41 1
  39   25   26 2
  40   25   29 1
  41   26   27 1
  42   26   42 1
  43   27   28 2
  44   27   43 1
  45   28   29 1

#	End of record

