#	Name: ASD03092129
#	Creating user name:	WinNT
#	Creation time:	15. 06. 2019 20:32

#	Modifying user name:	WinNT
#	Modification time:	15. 06. 2019 20:32

#	Program:	/corina/corina34_cracker 3.40 0067  02.08.2006

@<TRIPOS>MOLECULE
ASD03092129
  52   54    0    0    0
SMALL
NO_CHARGES


@<TRIPOS>ATOM
   1 N1             0.2843     0.9014    -0.3932 N.pl3   
   2 C2             0.0838    -0.3549     0.0968 C.2     
   3 C3            -1.2572    -0.5016     0.3106 C.2     
   4 C4            -1.8831     0.6954    -0.0593 C.2     
   5 N5            -0.9624     1.5346    -0.4744 N.2     
   6 N6            -3.2575     0.9551     0.0069 N.pl3   
   7 C7            -3.7415     2.2334    -0.2814 C.ar    
   8 C8            -5.0227     2.3935    -0.7938 C.ar    
   9 C9            -5.4982     3.6589    -1.0773 C.ar    
  10 C10           -4.7006     4.7655    -0.8516 C.ar    
  11 C11           -2.9446     3.3481    -0.0509 C.ar    
  12 C12            1.1271    -1.3726     0.3500 C.ar    
  13 C13            1.5750     1.4873    -0.7632 C.3     
  14 C14            2.3630    -1.3137    -0.3040 C.ar    
  15 C15            3.3071    -2.2833    -0.0381 C.ar    
  16 N16            3.0571    -3.2557     0.8181 N.ar    
  17 C17            1.9056    -3.3483     1.4558 C.ar    
  18 C18            0.9077    -2.4178     1.2545 C.ar    
  19 C19            1.6802    -4.4827     2.4220 C.3     
  20 C20           -3.4245     4.6098    -0.3415 C.ar    
  21 C21            4.6421    -2.2319    -0.7353 C.3     
  22 C22            1.8141     1.2857    -2.2374 C.2     
  23 N23            2.9463     1.7459    -2.8056 N.am    
  24 O24            0.9877     0.7094    -2.9125 O.2     
  25 C25            3.1788     1.5499    -4.2387 C.3     
  26 C26            3.9446     2.4420    -1.9901 C.3     
  27 C27           -6.8878     3.8335    -1.6337 C.3     
  28 F28           -7.7966     3.9821    -0.5805 F       
  29 F29           -6.9252     4.9719    -2.4460 F       
  30 F30           -7.2317     2.7086    -2.3911 F       
  31 H31           -1.7475    -1.3836     0.6955 H       
  32 H32           -3.8735     0.2473     0.2529 H       
  33 H33           -5.6461     1.5295    -0.9707 H       
  34 H34           -5.0748     5.7538    -1.0745 H       
  35 H35           -1.9497     3.2275     0.3516 H       
  36 H36            1.5676     2.5540    -0.5389 H       
  37 H37            2.3699     1.0024    -0.1966 H       
  38 H38            2.5741    -0.5210    -1.0065 H       
  39 H39           -0.0322    -2.4996     1.7802 H       
  40 H40            2.0025    -4.1806     3.4185 H       
  41 H41            0.6203    -4.7359     2.4441 H       
  42 H42            2.2549    -5.3519     2.1022 H       
  43 H43           -2.8041     5.4763    -0.1664 H       
  44 H44            5.3404    -1.6436    -0.1401 H       
  45 H45            5.0290    -3.2439    -0.8545 H       
  46 H46            4.5224    -1.7709    -1.7158 H       
  47 H47            2.7732     2.3971    -4.7917 H       
  48 H48            4.2498     1.4730    -4.4259 H       
  49 H49            2.6862     0.6338    -4.5647 H       
  50 H50            3.5996     2.4915    -0.9573 H       
  51 H51            4.8897     1.9005    -2.0319 H       
  52 H52            4.0873     3.4520    -2.3742 H       
@<TRIPOS>BOND
   1    1    2 1
   2    1   13 1
   3    1    5 1
   4    2    3 2
   5    2   12 1
   6    3    4 1
   7    3   31 1
   8    4    5 2
   9    4    6 1
  10    6    7 1
  11    6   32 1
  12    7    8 ar
  13    7   11 ar
  14    8    9 ar
  15    8   33 1
  16    9   10 ar
  17    9   27 1
  18   10   20 ar
  19   10   34 1
  20   11   20 ar
  21   11   35 1
  22   12   14 ar
  23   12   18 ar
  24   13   22 1
  25   13   36 1
  26   13   37 1
  27   14   15 ar
  28   14   38 1
  29   15   16 ar
  30   15   21 1
  31   16   17 ar
  32   17   18 ar
  33   17   19 1
  34   18   39 1
  35   19   40 1
  36   19   41 1
  37   19   42 1
  38   20   43 1
  39   21   44 1
  40   21   45 1
  41   21   46 1
  42   22   23 am
  43   22   24 2
  44   23   25 1
  45   23   26 1
  46   25   47 1
  47   25   48 1
  48   25   49 1
  49   26   50 1
  50   26   51 1
  51   26   52 1
  52   27   28 1
  53   27   29 1
  54   27   30 1

#	End of record

