#	Name: ASD04560204
#	Creating user name:	WinNT
#	Creation time:	15. 06. 2019 20:49

#	Modifying user name:	WinNT
#	Modification time:	15. 06. 2019 20:49

#	Program:	/corina/corina34_cracker 3.40 0067  02.08.2006

@<TRIPOS>MOLECULE
ASD04560204
  33   35    0    0    0
SMALL
NO_CHARGES


@<TRIPOS>ATOM
   1 C1            -0.0205     1.3847     0.1425 C.ar    
   2 C2            -0.0039     0.0065     0.1484 C.ar    
   3 C3             1.2065    -0.6721     0.1220 C.ar    
   4 C4             2.3927     0.0168     0.0905 C.ar    
   5 C5             1.1742     2.0993     0.1102 C.ar    
   6 S6             1.4893     3.8328     0.0940 S.3     
   7 C7             2.4004     1.4275     0.0844 C.ar    
   8 N8             3.4560     2.2654     0.0558 N.2     
   9 C9             3.2209     3.5315     0.0531 C.2     
  10 N10            4.1943     4.5164     0.0245 N.am    
  11 C11            5.4978     4.1750    -0.0057 C.2     
  12 N12            6.4450     5.1333    -0.0335 N.am    
  13 O13            5.8191     3.0025    -0.0079 O.2     
  14 C14            7.7975     4.7836     0.0573 C.ar    
  15 C15            8.7561     5.5268    -0.6214 C.ar    
  16 C16            8.1847     3.6973     0.8298 C.ar    
  17 C17            9.5202     3.3545     0.9174 C.ar    
  18 C18           10.4712     4.0919     0.2368 C.ar    
  19 C19           10.0902     5.1785    -0.5294 C.ar    
  20 C20            9.9410     2.1755     1.7564 C.3     
  21 F21            9.9364     1.0184     0.9702 F       
  22 F22           11.2291     2.3948     2.2561 F       
  23 F23            9.0479     2.0190     2.8218 F       
  24 Cl24          -1.4959    -0.8800     0.1893 Cl      
  25 Cl25           8.2781     6.8903    -1.5837 Cl      
  26 H26           -0.9630     1.9119     0.1585 H       
  27 H27            1.2148    -1.7520     0.1268 H       
  28 H28            3.3270    -0.5246     0.0706 H       
  29 H29            3.9379     5.4519     0.0262 H       
  30 H30            6.1896     6.0654    -0.1165 H       
  31 H31            7.4426     3.1208     1.3621 H       
  32 H32           11.5145     3.8216     0.3072 H       
  33 H33           10.8359     5.7550    -1.0566 H       
@<TRIPOS>BOND
   1    1    2 ar
   2    1    5 ar
   3    1   26 1
   4    2    3 ar
   5    2   24 1
   6    3    4 ar
   7    3   27 1
   8    4    7 ar
   9    4   28 1
  10    5    7 ar
  11    5    6 1
  12    6    9 1
  13    7    8 1
  14    8    9 2
  15    9   10 1
  16   10   11 am
  17   10   29 1
  18   11   12 am
  19   11   13 2
  20   12   14 1
  21   12   30 1
  22   14   16 ar
  23   14   15 ar
  24   15   19 ar
  25   15   25 1
  26   16   17 ar
  27   16   31 1
  28   17   18 ar
  29   17   20 1
  30   18   19 ar
  31   18   32 1
  32   19   33 1
  33   20   21 1
  34   20   22 1
  35   20   23 1

#	End of record

