#	Name: ASD03330450
#	Creating user name:	WinNT
#	Creation time:	15. 06. 2019 20:37

#	Modifying user name:	WinNT
#	Modification time:	15. 06. 2019 20:37

#	Program:	/corina/corina34_cracker 3.40 0067  02.08.2006

@<TRIPOS>MOLECULE
ASD03330450
  58   60    0    0    0
SMALL
NO_CHARGES


@<TRIPOS>ATOM
   1 C1             0.1580    -0.4291     1.0250 C.3     
   2 N2             0.1707    -1.8142     0.5340 N.3     
   3 C3             0.6092    -1.8775    -0.8719 C.3     
   4 C4             1.8862    -1.0873    -0.9967 C.2     
   5 N5             2.3240    -0.2048    -0.0529 N.pl3   
   6 C6             1.5967     0.0786     1.1873 C.3     
   7 C7             2.7998    -1.0883    -1.9995 C.2     
   8 N8             3.7799    -0.2191    -1.6646 N.2     
   9 C9             3.5006     0.3152    -0.4947 C.2     
  10 C10            4.3232     1.3089     0.2160 C.2     
  11 C11            2.7360    -1.8931    -3.2325 C.2     
  12 O12            1.7981    -2.6442    -3.4205 O.2     
  13 C13            3.6536    -2.5969    -5.3772 C.3     
  14 N14            3.7170    -1.7968    -4.1516 N.am    
  15 C15           -1.1451    -2.4450     0.7040 C.3     
  16 C16            4.0198     1.8322     1.3944 C.2     
  17 C17            2.8056    -1.8660    -6.4200 C.3     
  18 C18            3.3607    -0.4560    -6.6315 C.3     
  19 C19            2.8488    -2.6347    -7.7422 C.3     
  20 C20            1.3592    -1.7764    -5.9293 C.3     
  21 C21            5.0460    -2.8017    -5.9160 C.2     
  22 O22            5.9214    -2.0046    -5.6528 O.2     
  23 N23            5.3185    -3.8705    -6.6904 N.am    
  24 C24            6.6944    -4.1319    -7.1204 C.3     
  25 C25            5.0790     2.8171     1.8324 C.3     
  26 C26            5.8758     3.1388     0.5474 C.3     
  27 C27            5.6311     1.8652    -0.2971 C.3     
  28 H28           -0.3709     0.2032     0.3119 H       
  29 H29           -0.3506    -0.3908     1.9883 H       
  30 H30            0.7883    -2.9145    -1.1558 H       
  31 H31           -0.1561    -1.4452    -1.5165 H       
  32 H32            1.5890     1.1528     1.3721 H       
  33 H33            2.0762    -0.4352     2.0205 H       
  34 H34            3.2035    -3.5647    -5.1564 H       
  35 H35            4.4651    -1.1978    -4.0016 H       
  36 H36           -1.9037    -1.8438     0.2028 H       
  37 H37           -1.1277    -3.4444     0.2693 H       
  38 H38           -1.3801    -2.5147     1.7661 H       
  39 H39            3.1357     1.5882     1.9647 H       
  40 H40            4.3911    -0.5198    -6.9811 H       
  41 H41            2.7565     0.0647    -7.3744 H       
  42 H42            3.3298     0.0916    -5.6895 H       
  43 H43            2.4195    -3.6264    -7.6001 H       
  44 H44            2.2749    -2.0948    -8.4953 H       
  45 H45            3.8830    -2.7305    -8.0731 H       
  46 H46            1.3284    -1.2288    -4.9873 H       
  47 H47            0.7550    -1.2557    -6.6722 H       
  48 H48            0.9637    -2.7809    -5.7786 H       
  49 H49            4.6036    -4.4668    -6.9631 H       
  50 H50            7.0604    -3.2855    -7.7016 H       
  51 H51            7.3281    -4.2727    -6.2448 H       
  52 H52            6.7183    -5.0320    -7.7347 H       
  53 H53            4.6160     3.7211     2.2280 H       
  54 H54            5.7310     2.3654     2.5800 H       
  55 H55            5.4764     4.0236     0.0517 H       
  56 H56            6.9366     3.2611     0.7662 H       
  57 H57            6.4395     1.1496    -0.1473 H       
  58 H58            5.5410     2.1216    -1.3527 H       
@<TRIPOS>BOND
   1    1    2 1
   2    1    6 1
   3    1   28 1
   4    1   29 1
   5    2    3 1
   6    2   15 1
   7    3    4 1
   8    3   30 1
   9    3   31 1
  10    4    5 1
  11    4    7 2
  12    5    6 1
  13    5    9 1
  14    6   32 1
  15    6   33 1
  16    7    8 1
  17    7   11 1
  18    8    9 2
  19    9   10 1
  20   10   16 2
  21   10   27 1
  22   11   12 2
  23   11   14 am
  24   13   14 1
  25   13   17 1
  26   13   21 1
  27   13   34 1
  28   14   35 1
  29   15   36 1
  30   15   37 1
  31   15   38 1
  32   16   25 1
  33   16   39 1
  34   17   18 1
  35   17   19 1
  36   17   20 1
  37   18   40 1
  38   18   41 1
  39   18   42 1
  40   19   43 1
  41   19   44 1
  42   19   45 1
  43   20   46 1
  44   20   47 1
  45   20   48 1
  46   21   22 2
  47   21   23 am
  48   23   24 1
  49   23   49 1
  50   24   50 1
  51   24   51 1
  52   24   52 1
  53   25   26 1
  54   25   53 1
  55   25   54 1
  56   26   27 1
  57   26   55 1
  58   26   56 1
  59   27   57 1
  60   27   58 1

#	End of record

