#	Name: ASD02198163
#	Creating user name:	WinNT
#	Creation time:	15. 06. 2019 20:18

#	Modifying user name:	WinNT
#	Modification time:	15. 06. 2019 20:18

#	Program:	/corina/corina34_cracker 3.40 0067  02.08.2006

@<TRIPOS>MOLECULE
ASD02198163
  39   42    0    0    0
SMALL
NO_CHARGES


@<TRIPOS>ATOM
   1 C1            -0.0089     1.3805     0.1731 C.2     
   2 C2             0.0027     0.0070     0.0599 C.2     
   3 C3            -1.1906    -0.7839     0.0272 C.1     
   4 S4             1.5785     2.0026     0.1802 S.3     
   5 C5             2.2781     0.3988     0.0290 C.2     
   6 C6             1.2818    -0.5427    -0.0208 C.2     
   7 C7             3.6607     0.1200    -0.0318 C.2     
   8 C8             4.6296     1.2223    -0.1452 C.2     
   9 O9             4.0526    -1.0349     0.0096 O.2     
  10 N10            1.5223    -1.9044    -0.1384 N.pl3   
  11 N11           -1.1483     2.1469     0.2624 N.pl3   
  12 N12           -2.1372    -1.4114     0.0013 N.1     
  13 C13            4.2659     2.4955    -0.3355 C.2     
  14 C14           -1.0440     3.6035     0.3797 C.3     
  15 C15           -0.9515     4.2371    -0.9914 C.2     
  16 C16           -2.3338     4.1869     0.9985 C.3     
  17 C17           -2.6243     5.3892     0.0716 C.3     
  18 O18           -2.0186     5.0207    -1.2028 O.3     
  19 O19           -0.0509     4.0629    -1.7779 O.2     
  20 S20            5.6039     3.5408    -0.4256 S.3     
  21 C21            6.7570     2.2333    -0.1988 C.ar    
  22 C22            6.0763     1.0245    -0.0538 C.ar    
  23 C23            8.1541     2.2525    -0.1455 C.ar    
  24 C24            8.8572     1.0861     0.0432 C.ar    
  25 C25            8.1850    -0.1199     0.1824 C.ar    
  26 C26            6.8134    -0.1583     0.1401 C.ar    
  27 H27            2.4334    -2.2333    -0.1900 H       
  28 H28            0.7794    -2.5273    -0.1690 H       
  29 H29           -2.0206     1.7228     0.2476 H       
  30 H30            3.2401     2.8220    -0.4219 H       
  31 H31           -0.1765     3.8737     0.9818 H       
  32 H32           -3.1461     3.4611     0.9591 H       
  33 H33           -2.1578     4.5190     2.0217 H       
  34 H34           -3.6990     5.5297    -0.0442 H       
  35 H35           -2.1615     6.2941     0.4655 H       
  36 H36            8.6834     3.1877    -0.2535 H       
  37 H37            9.9363     1.1085     0.0830 H       
  38 H38            8.7437    -1.0324     0.3300 H       
  39 H39            6.2982    -1.1012     0.2496 H       
@<TRIPOS>BOND
   1    1    2 2
   2    1    4 1
   3    1   11 1
   4    2    3 1
   5    2    6 1
   6    3   12 3
   7    4    5 1
   8    5    6 2
   9    5    7 1
  10    6   10 1
  11    7    8 1
  12    7    9 2
  13    8   13 2
  14    8   22 1
  15   10   27 1
  16   10   28 1
  17   11   14 1
  18   11   29 1
  19   13   20 1
  20   13   30 1
  21   14   15 1
  22   14   16 1
  23   14   31 1
  24   15   19 2
  25   15   18 1
  26   16   17 1
  27   16   32 1
  28   16   33 1
  29   17   18 1
  30   17   34 1
  31   17   35 1
  32   20   21 1
  33   21   22 ar
  34   21   23 ar
  35   22   26 ar
  36   23   24 ar
  37   23   36 1
  38   24   25 ar
  39   24   37 1
  40   25   26 ar
  41   25   38 1
  42   26   39 1

#	End of record

