#	Name: ASD01870594
#	Creating user name:	WinNT
#	Creation time:	15. 06. 2019 19:39

#	Modifying user name:	WinNT
#	Modification time:	15. 06. 2019 19:39

#	Program:	/corina/corina34_cracker 3.40 0067  02.08.2006

@<TRIPOS>MOLECULE
ASD01870594
  40   43    0    0    0
SMALL
NO_CHARGES


@<TRIPOS>ATOM
   1 C1            -0.0345     1.4817     0.0356 C.2     
   2 C2             1.3413    -0.3674     0.0197 C.ar    
   3 C3             2.1056     0.8977     0.0137 C.2     
   4 N4             1.2359     1.9240     0.0235 N.am    
   5 C5            -0.0186     0.0036     0.0337 C.ar    
   6 C6            -0.9997    -0.9747     0.0418 C.ar    
   7 C7            -0.6363    -2.3124     0.0362 C.ar    
   8 C8             0.6971    -2.6763     0.0225 C.ar    
   9 C9             1.6896    -1.7085     0.0147 C.ar    
  10 C10            1.6052     3.2775     0.0208 C.ar    
  11 C11            2.9479     3.6306     0.0079 C.ar    
  12 C12            3.3115     4.9622     0.0052 C.ar    
  13 C13            2.3340     5.9489     0.0149 C.ar    
  14 C14            0.9909     5.5954     0.0273 C.ar    
  15 C15            0.6278     4.2636     0.0251 C.ar    
  16 N16            2.7024     7.2993     0.0126 N.am    
  17 C17            1.9491     8.2022    -0.6459 C.2     
  18 C18            2.2675     9.6304    -0.5523 C.2     
  19 O19            1.0044     7.8321    -1.3182 O.2     
  20 O20            3.2846    10.1715     0.1496 O.3     
  21 C21            1.5900    10.6455    -1.1652 C.2     
  22 C22            2.2355    11.8380    -0.8028 C.2     
  23 C23            3.2676    11.5027     0.0025 C.2     
  24 C24            0.3835    10.5112    -2.0581 C.3     
  25 O25           -1.0281     2.1799     0.0509 O.2     
  26 O26            3.3162     0.9946     0.0017 O.2     
  27 H27           -2.0432    -0.6963     0.0529 H       
  28 H28           -1.4004    -3.0757     0.0429 H       
  29 H29            0.9676    -3.7218     0.0183 H       
  30 H30            2.7298    -1.9986     0.0040 H       
  31 H31            3.7079     2.8633     0.0004 H       
  32 H32            4.3560     5.2368    -0.0041 H       
  33 H33            0.2306     6.3624     0.0352 H       
  34 H34           -0.4166     3.9886     0.0309 H       
  35 H35            3.5000     7.5852     0.4849 H       
  36 H36            1.9610    12.8357    -1.1120 H       
  37 H37            3.9653    12.1941     0.4516 H       
  38 H38           -0.5227    10.5626    -1.4545 H       
  39 H39            0.3800    11.3204    -2.7883 H       
  40 H40            0.4204     9.5535    -2.5772 H       
@<TRIPOS>BOND
   1    1    5 1
   2    1    4 am
   3    1   25 2
   4    2    3 1
   5    2    5 ar
   6    2    9 ar
   7    3    4 am
   8    3   26 2
   9    4   10 1
  10    5    6 ar
  11    6    7 ar
  12    6   27 1
  13    7    8 ar
  14    7   28 1
  15    8    9 ar
  16    8   29 1
  17    9   30 1
  18   10   11 ar
  19   10   15 ar
  20   11   12 ar
  21   11   31 1
  22   12   13 ar
  23   12   32 1
  24   13   14 ar
  25   13   16 1
  26   14   15 ar
  27   14   33 1
  28   15   34 1
  29   16   17 am
  30   16   35 1
  31   17   18 1
  32   17   19 2
  33   18   21 2
  34   18   20 1
  35   20   23 1
  36   21   22 1
  37   21   24 1
  38   22   23 2
  39   22   36 1
  40   23   37 1
  41   24   38 1
  42   24   39 1
  43   24   40 1

#	End of record

