#	Name: ASD08178186
#	Creating user name:	WinNT
#	Creation time:	15. 06. 2019 21:18

#	Modifying user name:	WinNT
#	Modification time:	15. 06. 2019 21:18

#	Program:	/corina/corina34_cracker 3.40 0067  02.08.2006

@<TRIPOS>MOLECULE
ASD08178186
  60   63    0    0    0
SMALL
NO_CHARGES


@<TRIPOS>ATOM
   1 C1            -0.0184     1.5028     0.0103 C.ar    
   2 C2             0.0021    -0.0041     0.0020 C.3     
   3 C3            -0.8070    -0.5316     1.1886 C.3     
   4 C4            -0.7862    -2.0615     1.1802 C.3     
   5 C5            -1.5953    -2.5890     2.3668 C.3     
   6 C6            -1.5749    -4.0958     2.3585 C.2     
   7 N7            -0.7024    -4.8513     2.9464 N.2     
   8 N8            -0.8584    -6.0978     2.8208 N.2     
   9 C9            -1.8706    -6.5111     2.1196 C.2     
  10 S10           -2.7393    -5.1477     1.5527 S.3     
  11 N11           -2.1982    -7.8403     1.8745 N.am    
  12 C12           -1.4351    -8.8275     2.3840 C.2     
  13 C13           -1.7900   -10.2678     2.1183 C.3     
  14 O14           -0.4626    -8.5566     3.0562 O.2     
  15 C15           -0.7862   -11.1655     2.7946 C.ar    
  16 C16            1.1740     2.2128     0.0027 C.ar    
  17 C17            1.1080     3.5972     0.0108 C.ar    
  18 C18           -0.1538     4.1904     0.0260 C.ar    
  19 N19           -1.2375     3.4277     0.0323 N.ar    
  20 N20           -1.1689     2.1461     0.0193 N.ar    
  21 N21           -0.2744     5.5756     0.0351 N.pl3   
  22 C22           -1.0042   -11.5918     4.0914 C.ar    
  23 C23           -0.0847   -12.4153     4.7149 C.ar    
  24 C24            1.0543   -12.8139     4.0430 C.ar    
  25 C25            1.2753   -12.3878     2.7411 C.ar    
  26 C26            0.3487   -11.5664     2.1160 C.ar    
  27 O27            2.3954   -12.7782     2.0780 O.3     
  28 C28            3.3031   -13.6281     2.7822 C.3     
  29 C29            4.4767   -13.9545     1.8949 C.ar    
  30 C30            5.5951   -13.1420     1.9014 C.ar    
  31 C31            4.4371   -15.0695     1.0788 C.ar    
  32 C32            5.5136   -15.3689     0.2649 C.ar    
  33 C33            6.6295   -14.5530     0.2668 C.ar    
  34 C34            6.6716   -13.4414     1.0875 C.ar    
  35 H35           -0.4361    -0.3683    -0.9272 H       
  36 H36            1.0315    -0.3539     0.0799 H       
  37 H37           -0.3688    -0.1674     2.1178 H       
  38 H38           -1.8364    -0.1818     1.1107 H       
  39 H39           -1.2245    -2.4257     0.2510 H       
  40 H40            0.2431    -2.4113     1.2581 H       
  41 H41           -1.1571    -2.2248     3.2960 H       
  42 H42           -2.6247    -2.2392     2.2889 H       
  43 H43           -2.9760    -8.0569     1.3368 H       
  44 H44           -2.7854   -10.4751     2.5111 H       
  45 H45           -1.7775   -10.4529     1.0442 H       
  46 H46            2.1253     1.7016    -0.0087 H       
  47 H47            2.0057     4.1976     0.0058 H       
  48 H48            0.5204     6.1317     0.0308 H       
  49 H49           -1.1533     5.9859     0.0457 H       
  50 H50           -1.8941   -11.2809     4.6187 H       
  51 H51           -0.2572   -12.7467     5.7283 H       
  52 H52            1.7725   -13.4564     4.5306 H       
  53 H53            0.5184   -11.2334     1.1027 H       
  54 H54            3.6562   -13.1189     3.6790 H       
  55 H55            2.7936   -14.5495     3.0643 H       
  56 H56            5.6277   -12.2732     2.5421 H       
  57 H57            3.5652   -15.7069     1.0773 H       
  58 H58            5.4829   -16.2404    -0.3722 H       
  59 H59            7.4707   -14.7871    -0.3687 H       
  60 H60            7.5434   -12.8040     1.0891 H       
@<TRIPOS>BOND
   1    1    2 1
   2    1   16 ar
   3    1   20 ar
   4    2    3 1
   5    2   35 1
   6    2   36 1
   7    3    4 1
   8    3   37 1
   9    3   38 1
  10    4    5 1
  11    4   39 1
  12    4   40 1
  13    5    6 1
  14    5   41 1
  15    5   42 1
  16    6    7 2
  17    6   10 1
  18    7    8 1
  19    8    9 2
  20    9   10 1
  21    9   11 1
  22   11   12 am
  23   11   43 1
  24   12   13 1
  25   12   14 2
  26   13   15 1
  27   13   44 1
  28   13   45 1
  29   15   22 ar
  30   15   26 ar
  31   16   17 ar
  32   16   46 1
  33   17   18 ar
  34   17   47 1
  35   18   19 ar
  36   18   21 1
  37   19   20 ar
  38   21   48 1
  39   21   49 1
  40   22   23 ar
  41   22   50 1
  42   23   24 ar
  43   23   51 1
  44   24   25 ar
  45   24   52 1
  46   25   26 ar
  47   25   27 1
  48   26   53 1
  49   27   28 1
  50   28   29 1
  51   28   54 1
  52   28   55 1
  53   29   30 ar
  54   29   31 ar
  55   30   34 ar
  56   30   56 1
  57   31   32 ar
  58   31   57 1
  59   32   33 ar
  60   32   58 1
  61   33   34 ar
  62   33   59 1
  63   34   60 1

#	End of record

