#	Name: ASD07930379
#	Creating user name:	WinNT
#	Creation time:	15. 06. 2019 21:12

#	Modifying user name:	WinNT
#	Modification time:	15. 06. 2019 21:12

#	Program:	/corina/corina34_cracker 3.40 0067  02.08.2006

@<TRIPOS>MOLECULE
ASD07930379
  46   49    0    0    0
SMALL
NO_CHARGES


@<TRIPOS>ATOM
   1 S1            -0.0218     1.7568     0.0117 S.3     
   2 C2             0.0021    -0.0041     0.0020 C.2     
   3 N3             1.0039    -0.6777    -0.4129 N.2     
   4 C4             2.2686    -0.2447    -0.9571 C.3     
   5 C5             2.4022     1.2744    -1.1331 C.3     
   6 C6             1.7645     2.0590    -0.0037 C.3     
   7 O7             1.9952     0.3585    -3.2710 O.3     
   8 C8             2.3528    -0.7412    -2.4245 C.3     
   9 C9             1.6712     1.5094    -2.4705 C.3     
  10 N10           -1.1039    -0.6814     0.4608 N.pl3   
  11 C11            2.1831     2.7861    -3.1406 C.3     
  12 C12            3.4090    -0.8012    -0.1442 C.ar    
  13 C13            4.7172    -0.5192    -0.5038 C.ar    
  14 C14            5.7692    -1.0282     0.2399 C.ar    
  15 C15            5.5183    -1.8191     1.3425 C.ar    
  16 C16            4.2045    -2.1051     1.7076 C.ar    
  17 C17            3.1490    -1.5860     0.9601 C.ar    
  18 F18            4.9673     0.2540    -1.5831 F       
  19 C19            2.6190    -3.2472     3.2652 C.ar    
  20 C20            3.9298    -2.9556     2.8922 C.ar    
  21 C21            4.9807    -3.4764     3.6501 C.ar    
  22 C22            4.6703    -4.2672     4.7493 C.ar    
  23 C23            3.3382    -4.5101     5.0535 C.ar    
  24 N24            2.3705    -4.0019     4.3156 N.ar    
  25 O25            5.6590    -4.7968     5.5171 O.3     
  26 C26            5.2574    -5.5988     6.6295 C.3     
  27 F27            4.4759    -4.8312     7.4998 F       
  28 F28            4.5110    -6.6902     6.1723 F       
  29 H29            3.4538     1.5459    -1.2250 H       
  30 H30            1.9515     3.1229    -0.1499 H       
  31 H31            2.1946     1.7422     0.9464 H       
  32 H32            3.3693    -1.0652    -2.6480 H       
  33 H33            1.6576    -1.5668    -2.5766 H       
  34 H34            0.5948     1.5692    -2.3096 H       
  35 H35           -1.8759    -0.1890     0.7809 H       
  36 H36           -1.1118    -1.6513     0.4642 H       
  37 H37            3.2520     2.6925    -3.3320 H       
  38 H38            1.6571     2.9376    -4.0833 H       
  39 H39            2.0046     3.6377    -2.4841 H       
  40 H40            6.7873    -0.8059    -0.0439 H       
  41 H41            6.3391    -2.2161     1.9214 H       
  42 H42            2.1291    -1.8014     1.2425 H       
  43 H43            1.7981    -2.8463     2.6893 H       
  44 H44            6.0080    -3.2701     3.3883 H       
  45 H45            3.0904    -5.1244     5.9065 H       
  46 H46            6.1414    -5.9583     7.1562 H       
@<TRIPOS>BOND
   1    1    2 1
   2    1    6 1
   3    2    3 2
   4    2   10 1
   5    3    4 1
   6    4    8 1
   7    4   12 1
   8    4    5 1
   9    5    6 1
  10    5    9 1
  11    5   29 1
  12    6   30 1
  13    6   31 1
  14    7    8 1
  15    7    9 1
  16    8   32 1
  17    8   33 1
  18    9   11 1
  19    9   34 1
  20   10   35 1
  21   10   36 1
  22   11   37 1
  23   11   38 1
  24   11   39 1
  25   12   13 ar
  26   12   17 ar
  27   13   14 ar
  28   13   18 1
  29   14   15 ar
  30   14   40 1
  31   15   16 ar
  32   15   41 1
  33   16   17 ar
  34   16   20 1
  35   17   42 1
  36   19   20 ar
  37   19   24 ar
  38   19   43 1
  39   20   21 ar
  40   21   22 ar
  41   21   44 1
  42   22   23 ar
  43   22   25 1
  44   23   24 ar
  45   23   45 1
  46   25   26 1
  47   26   27 1
  48   26   28 1
  49   26   46 1

#	End of record

