#	Name: ASD01912151
#	Creating user name:	WinNT
#	Creation time:	15. 06. 2019 19:59

#	Modifying user name:	WinNT
#	Modification time:	15. 06. 2019 19:59

#	Program:	/corina/corina34_cracker 3.40 0067  02.08.2006

@<TRIPOS>MOLECULE
ASD01912151
  42   45    0    0    0
SMALL
NO_CHARGES


@<TRIPOS>ATOM
   1 Cl1           -0.8576    -7.1808     1.6543 Cl      
   2 C2            -0.0184     1.5028     0.0103 C.3     
   3 C3             0.0021    -0.0041     0.0020 C.2     
   4 N4             0.5293    -0.7593    -0.9165 N.2     
   5 O5             0.3848    -1.9312    -0.6394 O.3     
   6 C6            -0.2734    -2.0421     0.5269 C.2     
   7 N7            -0.5149    -0.8075     0.9431 N.2     
   8 C8            -0.6468    -3.2877     1.2094 C.2     
   9 C9            -0.3847    -4.5666     0.7695 C.2     
  10 C10           -0.9139    -5.4471     1.7219 C.2     
  11 C11           -1.4771    -4.7053     2.7043 C.2     
  12 N12           -1.3160    -3.3887     2.4062 N.pl3   
  13 C13            1.4080     2.0220    -0.0005 C.3     
  14 C14            1.5142     3.5254     0.1790 C.3     
  15 C15            0.9277     4.2614    -1.0272 C.3     
  16 N16           -0.5201     4.4273    -0.8195 N.am    
  17 C17           -1.3395     3.3787    -0.9070 C.2     
  18 C18           -0.7867     2.0031    -1.2153 C.3     
  19 O19           -2.5316     3.5274    -0.7392 O.2     
  20 C20           -1.0407     5.6953    -0.5274 C.ar    
  21 C21           -1.1549     6.1137     0.7936 C.ar    
  22 C22           -1.6686     7.3657     1.0785 C.ar    
  23 C23           -2.0685     8.2011     0.0493 C.ar    
  24 C24           -1.9556     7.7850    -1.2667 C.ar    
  25 C25           -1.4377     6.5376    -1.5566 C.ar    
  26 F26           -0.7649     5.2980     1.7975 F       
  27 F27           -2.5701     9.4238     0.3294 F       
  28 H28           -0.5198     1.8498     0.9138 H       
  29 H29            0.1315    -4.8392    -0.1392 H       
  30 H30           -1.9701    -5.0953     3.5825 H       
  31 H31           -1.6268    -2.6445     2.9452 H       
  32 H32            1.9614     1.5357     0.8028 H       
  33 H33            1.8695     1.7515    -0.9502 H       
  34 H34            0.9701     3.8184     1.0769 H       
  35 H35            2.5631     3.7997     0.2909 H       
  36 H36            1.3980     5.2400    -1.1226 H       
  37 H37            1.1030     3.6789    -1.9317 H       
  38 H38           -0.1133     2.0622    -2.0703 H       
  39 H39           -1.6067     1.3203    -1.4377 H       
  40 H40           -1.7582     7.6919     2.1042 H       
  41 H41           -2.2686     8.4384    -2.0676 H       
  42 H42           -1.3499     6.2144    -2.5833 H       
@<TRIPOS>BOND
   1    1   10 1
   2    2    3 1
   3    2   13 1
   4    2   18 1
   5    2   28 1
   6    3    4 2
   7    3    7 1
   8    4    5 1
   9    5    6 1
  10    6    7 2
  11    6    8 1
  12    8    9 2
  13    8   12 1
  14    9   10 1
  15    9   29 1
  16   10   11 2
  17   11   12 1
  18   11   30 1
  19   12   31 1
  20   13   14 1
  21   13   32 1
  22   13   33 1
  23   14   15 1
  24   14   34 1
  25   14   35 1
  26   15   16 1
  27   15   36 1
  28   15   37 1
  29   16   17 am
  30   16   20 1
  31   17   18 1
  32   17   19 2
  33   18   38 1
  34   18   39 1
  35   20   21 ar
  36   20   25 ar
  37   21   22 ar
  38   21   26 1
  39   22   23 ar
  40   22   40 1
  41   23   24 ar
  42   23   27 1
  43   24   25 ar
  44   24   41 1
  45   25   42 1

#	End of record

