#	Name: ASD01910842
#	Creating user name:	WinNT
#	Creation time:	15. 06. 2019 19:56

#	Modifying user name:	WinNT
#	Modification time:	15. 06. 2019 19:56

#	Program:	/corina/corina34_cracker 3.40 0067  02.08.2006

@<TRIPOS>MOLECULE
ASD01910842
  51   54    0    0    0
SMALL
NO_CHARGES


@<TRIPOS>ATOM
   1 C1             0.0585     1.7572    -0.3627 C.ar    
   2 C2             0.0022     0.3703    -0.3929 C.ar    
   3 C3             1.1887    -0.3398    -0.3486 C.ar    
   4 C4             2.3910     0.3558    -0.2758 C.ar    
   5 N5             2.4030     1.6798    -0.2486 N.ar    
   6 C6             1.2872     2.3827    -0.2899 C.ar    
   7 N7             3.5906    -0.3450    -0.2307 N.3     
   8 C8             4.7345     0.5737    -0.1564 C.3     
   9 C9             6.0179    -0.2315     0.0736 C.3     
  10 N10            6.1156    -1.2631    -0.9702 N.am    
  11 C11            4.9534    -2.1354    -1.1974 C.3     
  12 C12            3.7119    -1.2553    -1.3773 C.3     
  13 C13            7.2404    -1.4055    -1.6989 C.2     
  14 C14            7.3645    -2.5260    -2.6555 C.ar    
  15 O15            8.1527    -0.6128    -1.5697 O.2     
  16 C16            7.9767    -2.3260    -3.8936 C.ar    
  17 C17            8.0893    -3.3759    -4.7817 C.ar    
  18 C18            7.5970    -4.6247    -4.4471 C.ar    
  19 C19            6.9885    -4.8296    -3.2213 C.ar    
  20 C20            6.8751    -3.7900    -2.3218 C.ar    
  21 C21            6.4547    -6.1933    -2.8655 C.3     
  22 O22            7.4777    -6.9507    -2.2161 O.3     
  23 C23            7.1580    -8.2130    -1.8271 C.ar    
  24 C24            8.1033    -9.0044    -1.1908 C.ar    
  25 C25            7.7758   -10.2872    -0.7964 C.ar    
  26 C26            6.5072   -10.7826    -1.0353 C.ar    
  27 C27            5.5635    -9.9960    -1.6696 C.ar    
  28 C28            5.8841    -8.7103    -2.0604 C.ar    
  29 H29           -0.8494     2.3409    -0.4002 H       
  30 H30           -0.9465    -0.1427    -0.4492 H       
  31 H31            1.1815    -1.4195    -0.3700 H       
  32 H32            1.3356     3.4614    -0.2658 H       
  33 H33            4.8161     1.1293    -1.0906 H       
  34 H34            4.5889     1.2697     0.6697 H       
  35 H35            6.8813     0.4313     0.0153 H       
  36 H36            5.9820    -0.7053     1.0545 H       
  37 H37            5.1130    -2.7314    -2.0959 H       
  38 H38            4.8152    -2.7923    -0.3386 H       
  39 H39            2.8247    -1.8857    -1.4367 H       
  40 H40            3.8078    -0.6742    -2.2945 H       
  41 H41            8.3611    -1.3514    -4.1561 H       
  42 H42            8.5625    -3.2224    -5.7403 H       
  43 H43            7.6877    -5.4432    -5.1459 H       
  44 H44            6.4000    -3.9513    -1.3654 H       
  45 H45            5.6014    -6.0861    -2.1958 H       
  46 H46            6.1416    -6.7091    -3.7733 H       
  47 H47            9.0944    -8.6181    -1.0044 H       
  48 H48            8.5114   -10.9038    -0.3014 H       
  49 H49            6.2532   -11.7857    -0.7261 H       
  50 H50            4.5735   -10.3854    -1.8556 H       
  51 H51            5.1466    -8.0963    -2.5558 H       
@<TRIPOS>BOND
   1    1    2 ar
   2    1    6 ar
   3    1   29 1
   4    2    3 ar
   5    2   30 1
   6    3    4 ar
   7    3   31 1
   8    4    5 ar
   9    4    7 1
  10    5    6 ar
  11    6   32 1
  12    7    8 1
  13    7   12 1
  14    8    9 1
  15    8   33 1
  16    8   34 1
  17    9   10 1
  18    9   35 1
  19    9   36 1
  20   10   11 1
  21   10   13 am
  22   11   12 1
  23   11   37 1
  24   11   38 1
  25   12   39 1
  26   12   40 1
  27   13   14 1
  28   13   15 2
  29   14   16 ar
  30   14   20 ar
  31   16   17 ar
  32   16   41 1
  33   17   18 ar
  34   17   42 1
  35   18   19 ar
  36   18   43 1
  37   19   20 ar
  38   19   21 1
  39   20   44 1
  40   21   22 1
  41   21   45 1
  42   21   46 1
  43   22   23 1
  44   23   24 ar
  45   23   28 ar
  46   24   25 ar
  47   24   47 1
  48   25   26 ar
  49   25   48 1
  50   26   27 ar
  51   26   49 1
  52   27   28 ar
  53   27   50 1
  54   28   51 1

#	End of record

