#	Name: ASD00360007
#	Creating user name:	WinNT
#	Creation time:	15. 06. 2019 18:35

#	Modifying user name:	WinNT
#	Modification time:	15. 06. 2019 18:35

#	Program:	/corina/corina34_cracker 3.40 0067  02.08.2006

@<TRIPOS>MOLECULE
ASD00360007
  21   20    0    0    0
SMALL
NO_CHARGES


@<TRIPOS>ATOM
   1 C1            -0.0173     1.4248     0.0099 C.3     
   2 O2             0.0021    -0.0041     0.0020 O.3     
   3 C3             1.4181     1.9544    -0.0010 C.3     
   4 C4            -0.7462     1.9240    -1.2110 C.2     
   5 C5            -0.7334     1.9182     1.2687 C.3     
   6 C6            -2.1472     1.3966     1.2794 C.2     
   7 C7             2.0849     1.5718    -1.2972 C.2     
   8 O8            -0.8887     3.2430    -1.4150 O.3     
   9 O9            -1.2022     1.1369    -2.0063 O.2     
  10 O10            3.3567     1.9325    -1.5297 O.3     
  11 O11            1.4746     0.9404    -2.1271 O.2     
  12 O12           -2.9684     1.7042     2.2956 O.3     
  13 O13           -2.5416     0.7015     0.3732 O.2     
  14 H14            0.4564    -0.3954     0.7607 H       
  15 H15            1.4055     3.0401     0.0945 H       
  16 H16            1.9710     1.5226     0.8333 H       
  17 H17           -0.2063     1.5571     2.1517 H       
  18 H18           -0.7482     3.0081     1.2747 H       
  19 H19           -1.3637     3.5152    -2.2121 H       
  20 H20            3.7415     1.6643    -2.3753 H       
  21 H21           -3.8660     1.3464     2.2585 H       
@<TRIPOS>BOND
   1    1    2 1
   2    1    3 1
   3    1    4 1
   4    1    5 1
   5    2   14 1
   6    3    7 1
   7    3   15 1
   8    3   16 1
   9    4    8 1
  10    4    9 2
  11    5    6 1
  12    5   17 1
  13    5   18 1
  14    6   12 1
  15    6   13 2
  16    7   10 1
  17    7   11 2
  18    8   19 1
  19   10   20 1
  20   12   21 1

#	End of record

