#	Name: ASD03730142
#	Creating user name:	WinNT
#	Creation time:	15. 06. 2019 20:44

#	Modifying user name:	WinNT
#	Modification time:	15. 06. 2019 20:44

#	Program:	/corina/corina34_cracker 3.40 0067  02.08.2006

@<TRIPOS>MOLECULE
ASD03730142
  50   54    0    0    0
SMALL
NO_CHARGES


@<TRIPOS>ATOM
   1 O1            -0.7189     1.6315     0.1786 O.3     
   2 C2            -0.9088     0.2071     0.2696 C.3     
   3 O3             0.3769    -0.3333    -0.0875 O.3     
   4 C4             1.2848     0.6295     0.2499 C.ar    
   5 C5             0.6106     1.8375     0.4123 C.ar    
   6 C6             2.6544     0.5713     0.4353 C.ar    
   7 C7             3.3679     1.7144     0.7827 C.ar    
   8 C8             2.6846     2.9172     0.9340 C.ar    
   9 C9             1.3182     2.9771     0.7559 C.ar    
  10 O10            4.7009     1.8695     1.0259 O.3     
  11 C11            3.7177     3.9570     1.2767 C.3     
  12 C12            5.0426     3.2656     0.9270 C.3     
  13 N13            3.3773     6.2136     1.4043 N.am    
  14 C14            3.5262     5.2267     0.4982 C.2     
  15 C15            3.6620     4.3629     2.7196 C.ar    
  16 C16            3.7706     3.6732     3.9066 C.ar    
  17 C17            3.6741     4.3473     5.1109 C.ar    
  18 C18            3.4683     5.7149     5.1194 C.ar    
  19 C19            3.3580     6.4101     3.9333 C.ar    
  20 C20            3.4542     5.7398     2.7162 C.ar    
  21 O21            3.5093     5.3417    -0.7090 O.2     
  22 C22            3.1609     7.6195     1.0540 C.3     
  23 C23            1.6597     7.8905     0.9364 C.3     
  24 C24            0.9997     7.7081     2.3046 C.3     
  25 C25           -0.5178     7.8396     2.1605 C.3     
  26 C26            1.4368     9.3238     0.4497 C.3     
  27 C27            1.9763     9.4685    -0.9747 C.3     
  28 H28           -1.1754    -0.0794     1.2869 H       
  29 H29           -1.6721    -0.1232    -0.4348 H       
  30 H30            3.1733    -0.3676     0.3101 H       
  31 H31            0.7989     3.9153     0.8842 H       
  32 H32            5.8175     3.5266     1.6477 H       
  33 H33            5.3546     3.5169    -0.0867 H       
  34 H34            3.9308     2.6052     3.8974 H       
  35 H35            3.7589     3.8069     6.0421 H       
  36 H36            3.3933     6.2411     6.0596 H       
  37 H37            3.1966     7.4778     3.9483 H       
  38 H38            3.5854     8.2568     1.8297 H       
  39 H39            3.6448     7.8352     0.1014 H       
  40 H40            1.2191     7.1925     0.2245 H       
  41 H41            1.2433     6.7207     2.6967 H       
  42 H42            1.3671     8.4719     2.9899 H       
  43 H43           -0.7683     8.8607     1.8730 H       
  44 H44           -0.8712     7.1493     1.3945 H       
  45 H45           -0.9950     7.6024     3.1114 H       
  46 H46            0.3703     9.5489     0.4588 H       
  47 H47            1.9601    10.0168     1.1085 H       
  48 H48            3.0300     9.1902    -0.9941 H       
  49 H49            1.4157     8.8155    -1.6437 H       
  50 H50            1.8676    10.5027    -1.3012 H       
@<TRIPOS>BOND
   1    1    2 1
   2    1    5 1
   3    2    3 1
   4    2   28 1
   5    2   29 1
   6    3    4 1
   7    4    5 ar
   8    4    6 ar
   9    5    9 ar
  10    6    7 ar
  11    6   30 1
  12    7    8 ar
  13    7   10 1
  14    8    9 ar
  15    8   11 1
  16    9   31 1
  17   10   12 1
  18   11   12 1
  19   11   14 1
  20   11   15 1
  21   12   32 1
  22   12   33 1
  23   13   14 am
  24   13   20 1
  25   13   22 1
  26   14   21 2
  27   15   16 ar
  28   15   20 ar
  29   16   17 ar
  30   16   34 1
  31   17   18 ar
  32   17   35 1
  33   18   19 ar
  34   18   36 1
  35   19   20 ar
  36   19   37 1
  37   22   23 1
  38   22   38 1
  39   22   39 1
  40   23   24 1
  41   23   26 1
  42   23   40 1
  43   24   25 1
  44   24   41 1
  45   24   42 1
  46   25   43 1
  47   25   44 1
  48   25   45 1
  49   26   27 1
  50   26   46 1
  51   26   47 1
  52   27   48 1
  53   27   49 1
  54   27   50 1

#	End of record

