#	Name: ASD01470030
#	Creating user name:	WinNT
#	Creation time:	15. 06. 2019 19:21

#	Modifying user name:	WinNT
#	Modification time:	15. 06. 2019 19:21

#	Program:	/corina/corina34_cracker 3.40 0067  02.08.2006

@<TRIPOS>MOLECULE
ASD01470030
  84   90    0    0    0
SMALL
NO_CHARGES


@<TRIPOS>ATOM
   1 N1            -1.6766     1.3939     0.5997 N.am    
   2 C2            -0.3424     0.9446     0.2115 C.3     
   3 C3             0.1954    -0.0893     1.2108 C.3     
   4 C4            -0.2696    -1.4980     0.8755 C.3     
   5 C5            -1.6368    -1.4905     0.2117 C.3     
   6 N6            -2.6057    -0.7537     1.0241 N.am    
   7 C7            -2.6381     0.5904     1.0256 C.2     
   8 O8            -3.6493     1.1164     1.4490 O.2     
   9 C9            -3.5564    -1.4945     1.8570 C.3     
  10 C10           -1.9675     2.8274     0.5182 C.3     
  11 C11           -1.7070     3.4697     1.8563 C.ar    
  12 C12           -3.0039    -1.6278     3.2527 C.ar    
  13 C13           -3.1504    -0.6002     4.1386 C.ar    
  14 C14           -2.6373    -0.7253     5.4345 C.ar    
  15 C15           -1.9754    -1.9100     5.8104 C.ar    
  16 C16           -1.8415    -2.9420     4.8847 C.ar    
  17 C17           -2.3550    -2.7983     3.6272 C.ar    
  18 C18           -0.4281     3.8716     2.1927 C.ar    
  19 C19           -0.1891     4.4609     3.4203 C.ar    
  20 C20           -1.2291     4.6485     4.3110 C.ar    
  21 C21           -2.5086     4.2474     3.9742 C.ar    
  22 C22           -2.7483     3.6622     2.7452 C.ar    
  23 C23           -2.6139     0.1464     6.6046 C.2     
  24 N24           -1.9944    -0.4862     7.5597 N.2     
  25 N25           -1.5875    -1.7484     7.1148 N.pl3   
  26 C26           -0.4085     0.3131    -1.1806 C.3     
  27 O27            1.6239    -0.0549     1.1907 O.3     
  28 C28            0.4568     1.1001    -2.1308 C.ar    
  29 C29            1.7594     0.7034    -2.3693 C.ar    
  30 C30            2.5531     1.4254    -3.2409 C.ar    
  31 C31            2.0442     2.5437    -3.8743 C.ar    
  32 C32            0.7414     2.9399    -3.6364 C.ar    
  33 C33           -0.0538     2.2154    -2.7682 C.ar    
  34 C34           -2.1194    -2.9316     0.0356 C.3     
  35 O35           -0.3390    -2.2657     2.0788 O.3     
  36 C36           -1.1987    -3.6575    -0.9112 C.ar    
  37 C37           -0.0651    -4.2843    -0.4285 C.ar    
  38 C38            0.7795    -4.9501    -1.2971 C.ar    
  39 C39            0.4902    -4.9894    -2.6482 C.ar    
  40 C40           -0.6438    -4.3634    -3.1308 C.ar    
  41 C41           -1.4907    -3.7013    -2.2617 C.ar    
  42 C42           -3.6425     4.4515     4.9456 C.3     
  43 N43           -4.3300     5.7078     4.6366 N.pl3   
  44 N44           -5.3254     5.8166     3.8296 N.2     
  45 C45           -5.6964     7.0761     3.7852 C.2     
  46 C46           -4.8352     7.7593     4.6469 C.2     
  47 N47           -4.0239     6.8510     5.1396 N.2     
  48 H48            0.3310     1.8012     0.1837 H       
  49 H49           -0.1529     0.1700     2.2105 H       
  50 H50            0.4513    -1.9600     0.2009 H       
  51 H51           -1.5576    -1.0191    -0.7679 H       
  52 H52           -4.5045    -0.9579     1.8913 H       
  53 H53           -3.7152    -2.4860     1.4328 H       
  54 H54           -1.3274     3.2857    -0.2356 H       
  55 H55           -3.0126     2.9710     0.2435 H       
  56 H56           -3.6592     0.3047     3.8410 H       
  57 H57           -1.3355    -3.8551     5.1615 H       
  58 H58           -2.2491    -3.6013     2.9128 H       
  59 H59            0.3846     3.7250     1.4967 H       
  60 H60            0.8104     4.7743     3.6834 H       
  61 H61           -1.0423     5.1082     5.2703 H       
  62 H62           -3.7478     3.3488     2.4821 H       
  63 H63           -3.0351     1.1389     6.6674 H       
  64 H64           -1.1079    -2.4042     7.6447 H       
  65 H65           -0.0508    -0.7153    -1.1304 H       
  66 H66           -1.4392     0.3224    -1.5352 H       
  67 H67            2.0409    -0.6818     1.7975 H       
  68 H68            2.1570    -0.1703    -1.8745 H       
  69 H69            3.5710     1.1159    -3.4267 H       
  70 H70            2.6646     3.1082    -4.5546 H       
  71 H71            0.3439     3.8138    -4.1310 H       
  72 H72           -1.0716     2.5249    -2.5823 H       
  73 H73           -2.1179    -3.4360     1.0019 H       
  74 H74           -3.1305    -2.9291    -0.3714 H       
  75 H75            0.5047    -2.3432     2.5450 H       
  76 H76            0.1609    -4.2536     0.6271 H       
  77 H77            1.6655    -5.4392    -0.9200 H       
  78 H78            1.1505    -5.5090    -3.3269 H       
  79 H79           -0.8696    -4.3939    -4.1865 H       
  80 H80           -2.3767    -3.2122    -2.6387 H       
  81 H81           -4.3456     3.6227     4.8628 H       
  82 H82           -3.2481     4.4934     5.9609 H       
  83 H83           -6.5019     7.4970     3.2017 H       
  84 H84           -4.8385     8.8167     4.8665 H       
@<TRIPOS>BOND
   1    1    2 1
   2    1   10 1
   3    1    7 am
   4    2    3 1
   5    2   26 1
   6    2   48 1
   7    3    4 1
   8    3   27 1
   9    3   49 1
  10    4    5 1
  11    4   35 1
  12    4   50 1
  13    5    6 1
  14    5   34 1
  15    5   51 1
  16    6    7 am
  17    6    9 1
  18    7    8 2
  19    9   12 1
  20    9   52 1
  21    9   53 1
  22   10   11 1
  23   10   54 1
  24   10   55 1
  25   11   18 ar
  26   11   22 ar
  27   12   13 ar
  28   12   17 ar
  29   13   14 ar
  30   13   56 1
  31   14   15 ar
  32   14   23 1
  33   15   16 ar
  34   15   25 1
  35   16   17 ar
  36   16   57 1
  37   17   58 1
  38   18   19 ar
  39   18   59 1
  40   19   20 ar
  41   19   60 1
  42   20   21 ar
  43   20   61 1
  44   21   22 ar
  45   21   42 1
  46   22   62 1
  47   23   24 2
  48   23   63 1
  49   24   25 1
  50   25   64 1
  51   26   28 1
  52   26   65 1
  53   26   66 1
  54   27   67 1
  55   28   29 ar
  56   28   33 ar
  57   29   30 ar
  58   29   68 1
  59   30   31 ar
  60   30   69 1
  61   31   32 ar
  62   31   70 1
  63   32   33 ar
  64   32   71 1
  65   33   72 1
  66   34   36 1
  67   34   73 1
  68   34   74 1
  69   35   75 1
  70   36   37 ar
  71   36   41 ar
  72   37   38 ar
  73   37   76 1
  74   38   39 ar
  75   38   77 1
  76   39   40 ar
  77   39   78 1
  78   40   41 ar
  79   40   79 1
  80   41   80 1
  81   42   43 1
  82   42   81 1
  83   42   82 1
  84   43   44 1
  85   43   47 1
  86   44   45 2
  87   45   46 1
  88   45   83 1
  89   46   47 2
  90   46   84 1

#	End of record

