#	Name: ASD05513028
#	Creating user name:	WinNT
#	Creation time:	15. 06. 2019 21:01

#	Modifying user name:	WinNT
#	Modification time:	15. 06. 2019 21:01

#	Program:	/corina/corina34_cracker 3.40 0067  02.08.2006

@<TRIPOS>MOLECULE
ASD05513028
  32   34    0    0    0
SMALL
NO_CHARGES


@<TRIPOS>ATOM
   1 C1            -0.1880     1.1317    -0.9096 C.2     
   2 C2             0.0021    -0.0041     0.0020 C.2     
   3 C3             1.1412    -0.7444    -0.0622 C.2     
   4 C4             2.5215    -0.2570    -0.2597 C.ar    
   5 C5             3.3488    -1.3900    -0.2549 C.ar    
   6 N6             2.5723    -2.5295    -0.0691 N.am    
   7 C7             1.2702    -2.2211     0.0574 C.2     
   8 C8             3.0688     1.0138    -0.4306 C.ar    
   9 C9             4.4335     1.1545    -0.5960 C.ar    
  10 C10            5.2513     0.0375    -0.5920 C.ar    
  11 C11            4.7184    -1.2258    -0.4228 C.ar    
  12 O12            0.3608    -3.0082     0.2300 O.2     
  13 O13            0.5993     1.3215    -1.8171 O.2     
  14 C14           -1.3392     2.0404    -0.7279 C.ar    
  15 Cl15           2.0407     2.4127    -0.4363 Cl      
  16 C16           -2.2537     1.8302     0.3066 C.ar    
  17 N17           -3.2792     2.6401     0.4681 N.ar    
  18 C18           -3.4851     3.6715    -0.3287 C.ar    
  19 C19           -2.6249     3.9480    -1.3771 C.ar    
  20 C20           -1.5288     3.1311    -1.5872 C.ar    
  21 C21            3.1070    -3.8922    -0.0115 C.3     
  22 H22           -0.7627    -0.2514     0.7234 H       
  23 H23            4.8624     2.1368    -0.7288 H       
  24 H24            6.3170     0.1549    -0.7225 H       
  25 H25            5.3681    -2.0885    -0.4214 H       
  26 H26           -2.1188     0.9963     0.9795 H       
  27 H27           -4.3394     4.3105    -0.1602 H       
  28 H28           -2.8054     4.7954    -2.0219 H       
  29 H29           -0.8413     3.3240    -2.3974 H       
  30 H30            3.3542    -4.1423     1.0202 H       
  31 H31            2.3598    -4.5919    -0.3860 H       
  32 H32            4.0050    -3.9564    -0.6260 H       
@<TRIPOS>BOND
   1    1    2 1
   2    1   13 2
   3    1   14 1
   4    2    3 2
   5    2   22 1
   6    3    4 1
   7    3    7 1
   8    4    5 ar
   9    4    8 ar
  10    5    6 1
  11    5   11 ar
  12    6    7 am
  13    6   21 1
  14    7   12 2
  15    8    9 ar
  16    8   15 1
  17    9   10 ar
  18    9   23 1
  19   10   11 ar
  20   10   24 1
  21   11   25 1
  22   14   16 ar
  23   14   20 ar
  24   16   17 ar
  25   16   26 1
  26   17   18 ar
  27   18   19 ar
  28   18   27 1
  29   19   20 ar
  30   19   28 1
  31   20   29 1
  32   21   30 1
  33   21   31 1
  34   21   32 1

#	End of record

