#	Name: ASD01900510
#	Creating user name:	WinNT
#	Creation time:	15. 06. 2019 19:52

#	Modifying user name:	WinNT
#	Modification time:	15. 06. 2019 19:52

#	Program:	/corina/corina34_cracker 3.40 0067  02.08.2006

@<TRIPOS>MOLECULE
ASD01900510
  25   27    0    0    0
SMALL
NO_CHARGES


@<TRIPOS>ATOM
   1 C1            -0.0261     1.3896     0.1265 C.ar    
   2 C2             0.0066     0.0004    -0.0641 C.ar    
   3 C3             1.2219    -0.6690     0.0513 C.ar    
   4 C4             2.3512     0.0703     0.3508 C.ar    
   5 C5             2.2441     1.4425     0.5261 C.ar    
   6 N6             1.0868     2.0556     0.4128 N.ar    
   7 O7            -1.2507    -0.3998    -0.3377 O.3     
   8 N8            -2.1132     0.7201    -0.3285 N.2     
   9 C9            -1.4306     1.7960    -0.0526 C.2     
  10 N10           -1.9330     3.0872     0.0450 N.pl3   
  11 C11           -3.3104     3.3095    -0.0404 C.ar    
  12 C12           -4.2006     2.3267     0.3728 C.ar    
  13 C13           -5.5627     2.5500     0.2875 C.ar    
  14 C14           -6.0382     3.7533    -0.2099 C.ar    
  15 C15           -5.1525     4.7322    -0.6219 C.ar    
  16 C16           -3.7910     4.5160    -0.5332 C.ar    
  17 F17           -6.4300     1.5950     0.6885 F       
  18 Br18          -7.9012     4.0565    -0.3257 Br      
  19 H19            1.2810    -1.7382    -0.0891 H       
  20 H20            3.3101    -0.4170     0.4480 H       
  21 H21            3.1278     2.0175     0.7603 H       
  22 H22           -1.3280     3.8346     0.1725 H       
  23 H23           -3.8296     1.3892     0.7599 H       
  24 H24           -5.5257     5.6687    -1.0093 H       
  25 H25           -3.1004     5.2830    -0.8512 H       
@<TRIPOS>BOND
   1    1    2 ar
   2    1    6 ar
   3    1    9 1
   4    2    3 ar
   5    2    7 1
   6    3    4 ar
   7    3   19 1
   8    4    5 ar
   9    4   20 1
  10    5    6 ar
  11    5   21 1
  12    7    8 1
  13    8    9 2
  14    9   10 1
  15   10   11 1
  16   10   22 1
  17   11   12 ar
  18   11   16 ar
  19   12   13 ar
  20   12   23 1
  21   13   14 ar
  22   13   17 1
  23   14   15 ar
  24   14   18 1
  25   15   16 ar
  26   15   24 1
  27   16   25 1

#	End of record

