#	Name: ASD01920011
#	Creating user name:	WinNT
#	Creation time:	15. 06. 2019 20:11

#	Modifying user name:	WinNT
#	Modification time:	15. 06. 2019 20:11

#	Program:	/corina/corina34_cracker 3.40 0067  02.08.2006

@<TRIPOS>MOLECULE
ASD01920011
  36   39    0    0    0
SMALL
NO_CHARGES


@<TRIPOS>ATOM
   1 N1            -0.0174     1.3622     0.1048 N.am    
   2 C2             0.0021    -0.0039    -0.0001 C.2     
   3 C3            -1.1513    -0.7274    -0.0880 C.2     
   4 C4            -2.3853    -0.0663    -0.0706 C.2     
   5 C5            -2.3961     1.3361     0.0378 C.2     
   6 C6            -1.1844     2.0416     0.1306 C.2     
   7 O7            -3.6722    -0.4338    -0.1345 O.3     
   8 N8            -4.4363     0.5027    -0.0829 N.2     
   9 C9            -3.8262     1.6588     0.0235 C.2     
  10 C10           -4.4487     3.0031     0.1102 C.ar    
  11 O11           -1.1863     3.2569     0.2248 O.2     
  12 C12            1.2469     2.0967     0.1966 C.3     
  13 C13            1.3007    -0.7088    -0.0191 C.ar    
  14 C14            1.5187    -1.7998     0.8244 C.ar    
  15 C15            2.7332    -2.4537     0.8013 C.ar    
  16 C16            3.7342    -2.0302    -0.0549 C.ar    
  17 C17            3.5248    -0.9497    -0.8935 C.ar    
  18 C18            2.3131    -0.2905    -0.8847 C.ar    
  19 C19           -5.6217     3.2974    -0.5901 C.ar    
  20 C20           -6.1674     4.5605    -0.4814 C.ar    
  21 N21           -5.5966     5.4822     0.2697 N.ar    
  22 C22           -4.4896     5.2455     0.9465 C.ar    
  23 C23           -3.8813     4.0074     0.8990 C.ar    
  24 H24           -1.1126    -1.8036    -0.1707 H       
  25 H25            1.6349     2.2788    -0.8056 H       
  26 H26            1.0782     3.0489     0.6995 H       
  27 H27            1.9682     1.5088     0.7642 H       
  28 H28            0.7384    -2.1309     1.4937 H       
  29 H29            2.9031    -3.2977     1.4533 H       
  30 H30            4.6834    -2.5452    -0.0685 H       
  31 H31            4.3104    -0.6244    -1.5594 H       
  32 H32            2.1508     0.5525    -1.5400 H       
  33 H33           -6.0940     2.5476    -1.2076 H       
  34 H34           -7.0737     4.7974    -1.0189 H       
  35 H35           -4.0558     6.0295     1.5495 H       
  36 H36           -2.9749     3.8204     1.4557 H       
@<TRIPOS>BOND
   1    1    2 1
   2    1   12 1
   3    1    6 am
   4    2    3 2
   5    2   13 1
   6    3    4 1
   7    3   24 1
   8    4    5 2
   9    4    7 1
  10    5    6 1
  11    5    9 1
  12    6   11 2
  13    7    8 1
  14    8    9 2
  15    9   10 1
  16   10   19 ar
  17   10   23 ar
  18   12   25 1
  19   12   26 1
  20   12   27 1
  21   13   14 ar
  22   13   18 ar
  23   14   15 ar
  24   14   28 1
  25   15   16 ar
  26   15   29 1
  27   16   17 ar
  28   16   30 1
  29   17   18 ar
  30   17   31 1
  31   18   32 1
  32   19   20 ar
  33   19   33 1
  34   20   21 ar
  35   20   34 1
  36   21   22 ar
  37   22   23 ar
  38   22   35 1
  39   23   36 1

#	End of record

