#	Name: ASD01903280
#	Creating user name:	WinNT
#	Creation time:	15. 06. 2019 19:54

#	Modifying user name:	WinNT
#	Modification time:	15. 06. 2019 19:54

#	Program:	/corina/corina34_cracker 3.40 0067  02.08.2006

@<TRIPOS>MOLECULE
ASD01903280
  43   46    0    0    0
SMALL
NO_CHARGES


@<TRIPOS>ATOM
   1 C1            -0.1458     1.6006     0.1761 C.ar    
   2 C2            -0.9541     1.6212     1.3012 C.ar    
   3 C3            -0.5557     2.3502     2.4111 C.ar    
   4 C4             0.6464     3.0372     2.3540 C.ar    
   5 C5             1.4086     2.9718     1.1895 C.ar    
   6 N6             0.9907     2.2621     0.1487 N.ar    
   7 C7             2.6959     3.7005     1.1124 C.2     
   8 O8             3.0832     4.3519     2.0624 O.2     
   9 N9             3.4376     3.6411    -0.0113 N.am    
  10 C10            4.5961     4.4093    -0.1236 C.ar    
  11 C11            4.5281     5.7147    -0.6322 C.ar    
  12 C12            5.6939     6.4763    -0.7403 C.ar    
  13 C13            6.9070     5.9394    -0.3456 C.ar    
  14 C14            6.9684     4.6445     0.1579 C.ar    
  15 C15            5.8204     3.8860     0.2734 C.ar    
  16 N16            8.0792     6.7020    -0.4589 N.am    
  17 C17            9.3045     6.2710    -0.1086 C.2     
  18 C18           10.2775     7.3517    -0.3736 C.ar    
  19 C19            9.5285     8.4252    -0.8969 C.ar    
  20 C20            8.1267     7.9583    -0.9375 C.2     
  21 O21            9.5671     5.1773     0.3493 O.2     
  22 O22            7.1756     8.6038    -1.3299 O.2     
  23 C23           12.2730     8.6647    -0.5730 C.ar    
  24 C24           11.5386     9.7173    -1.0861 C.ar    
  25 C25           10.1669     9.6032    -1.2501 C.ar    
  26 C26           11.6480     7.4803    -0.2152 C.ar    
  27 C27           12.4556     6.3374     0.3440 C.3     
  28 Cl28           5.9089     2.2708     0.9033 Cl      
  29 C29            3.2697     6.2638    -1.0391 C.1     
  30 N30            2.2714     6.6994    -1.3619 N.1     
  31 H31           -0.4510     1.0301    -0.6886 H       
  32 H32           -1.8857     1.0749     1.3134 H       
  33 H33           -1.1685     2.3821     3.2999 H       
  34 H34            0.9874     3.6155     3.2001 H       
  35 H35            3.1656     3.0640    -0.7420 H       
  36 H36            5.6489     7.4820    -1.1313 H       
  37 H37            7.9182     4.2315     0.4641 H       
  38 H38           13.3412     8.7657    -0.4503 H       
  39 H39           12.0369    10.6353    -1.3608 H       
  40 H40            9.5982    10.4288    -1.6519 H       
  41 H41           12.7942     5.6985    -0.4717 H       
  42 H42           13.3194     6.7309     0.8798 H       
  43 H43           11.8374     5.7562     1.0282 H       
@<TRIPOS>BOND
   1    1    2 ar
   2    1    6 ar
   3    1   31 1
   4    2    3 ar
   5    2   32 1
   6    3    4 ar
   7    3   33 1
   8    4    5 ar
   9    4   34 1
  10    5    6 ar
  11    5    7 1
  12    7    8 2
  13    7    9 am
  14    9   10 1
  15    9   35 1
  16   10   11 ar
  17   10   15 ar
  18   11   12 ar
  19   11   29 1
  20   12   13 ar
  21   12   36 1
  22   13   14 ar
  23   13   16 1
  24   14   15 ar
  25   14   37 1
  26   15   28 1
  27   16   17 am
  28   16   20 am
  29   17   18 1
  30   17   21 2
  31   18   19 ar
  32   18   26 ar
  33   19   20 1
  34   19   25 ar
  35   20   22 2
  36   23   24 ar
  37   23   26 ar
  38   23   38 1
  39   24   25 ar
  40   24   39 1
  41   25   40 1
  42   26   27 1
  43   27   41 1
  44   27   42 1
  45   27   43 1
  46   29   30 3

#	End of record

