#	Name: ASD01916685
#	Creating user name:	WinNT
#	Creation time:	15. 06. 2019 20:07

#	Modifying user name:	WinNT
#	Modification time:	15. 06. 2019 20:07

#	Program:	/corina/corina34_cracker 3.40 0067  02.08.2006

@<TRIPOS>MOLECULE
ASD01916685
  40   43    0    0    0
SMALL
NO_CHARGES


@<TRIPOS>ATOM
   1 C1            -0.1494     1.2399    -0.0561 C.ar    
   2 C2            -0.1684    -0.1541    -0.1157 C.ar    
   3 C3             1.0317    -0.8423    -0.1310 C.ar    
   4 C4             2.2134    -0.1154    -0.0863 C.ar    
   5 C5             2.1595     1.2650    -0.0282 C.ar    
   6 N6             1.0038     1.8972    -0.0148 N.ar    
   7 C7            -1.3827     1.9675    -0.0456 C.1     
   8 C8            -2.3938     2.5640    -0.0369 C.1     
   9 C9            -3.6616     3.3119    -0.0260 C.3     
  10 C10           -3.3682     4.8120     0.0426 C.3     
  11 O11           -5.3323     6.0262    -1.0149 O.3     
  12 N12           -6.3403     6.6028    -0.6647 N.2     
  13 C13           -6.4344     6.5905     0.6405 C.2     
  14 N14           -5.3532     5.9280     1.1121 N.2     
  15 C15           -4.6661     5.5777     0.0537 C.2     
  16 C16           -7.5210     7.1900     1.4500 C.ar    
  17 C17           -8.1106     6.4683     2.4726 C.ar    
  18 C18           -9.1307     7.0239     3.2366 C.ar    
  19 C19           -9.5775     8.2891     3.0018 C.ar    
  20 C20           -9.0068     9.0576     1.9729 C.ar    
  21 C21           -9.4505    10.3654     1.7096 C.ar    
  22 C22           -8.8760    11.0820     0.7051 C.ar    
  23 C23           -7.8524    10.5387    -0.0684 C.ar    
  24 C24           -7.3980     9.2750     0.1590 C.ar    
  25 C25           -7.9626     8.5088     1.1891 C.ar    
  26 H26           -1.1065    -0.6881    -0.1490 H       
  27 H27            1.0487    -1.9212    -0.1763 H       
  28 H28            3.1664    -0.6235    -0.0964 H       
  29 H29            3.0776     1.8328     0.0067 H       
  30 H30           -4.2208     3.0923    -0.9354 H       
  31 H31           -4.2501     3.0168     0.8427 H       
  32 H32           -2.8090     5.0316     0.9520 H       
  33 H33           -2.7797     5.1072    -0.8261 H       
  34 H34           -7.7752     5.4628     2.6793 H       
  35 H35           -9.5768     6.4422     4.0297 H       
  36 H36          -10.3713     8.7019     3.6067 H       
  37 H37          -10.2433    10.7990     2.3011 H       
  38 H38           -9.2188    12.0863     0.5046 H       
  39 H39           -7.4133    11.1279    -0.8598 H       
  40 H40           -6.6039     8.8665    -0.4483 H       
@<TRIPOS>BOND
   1    1    2 ar
   2    1    6 ar
   3    1    7 1
   4    2    3 ar
   5    2   26 1
   6    3    4 ar
   7    3   27 1
   8    4    5 ar
   9    4   28 1
  10    5    6 ar
  11    5   29 1
  12    7    8 3
  13    8    9 1
  14    9   10 1
  15    9   30 1
  16    9   31 1
  17   10   15 1
  18   10   32 1
  19   10   33 1
  20   11   12 1
  21   11   15 1
  22   12   13 2
  23   13   14 1
  24   13   16 1
  25   14   15 2
  26   16   17 ar
  27   16   25 ar
  28   17   18 ar
  29   17   34 1
  30   18   19 ar
  31   18   35 1
  32   19   20 ar
  33   19   36 1
  34   20   21 ar
  35   20   25 ar
  36   21   22 ar
  37   21   37 1
  38   22   23 ar
  39   22   38 1
  40   23   24 ar
  41   23   39 1
  42   24   25 ar
  43   24   40 1

#	End of record

