#	Name: ASD08780014
#	Creating user name:	WinNT
#	Creation time:	15. 06. 2019 21:19

#	Modifying user name:	WinNT
#	Modification time:	15. 06. 2019 21:19

#	Program:	/corina/corina34_cracker 3.40 0067  02.08.2006

@<TRIPOS>MOLECULE
ASD08780014
  19   19    0    0    0
SMALL
NO_CHARGES


@<TRIPOS>ATOM
   1 C1            -0.0167     1.3785     0.0096 C.ar    
   2 C2             0.0021    -0.0041     0.0020 C.ar    
   3 C3             1.2076    -0.6791    -0.0127 C.ar    
   4 C4             2.3973     0.0295    -0.0203 C.ar    
   5 C5             2.3773     1.4138    -0.0131 C.ar    
   6 C6             1.1702     2.0869     0.0021 C.ar    
   7 S7            -1.5548     2.2379     0.0216 S.o2    
   8 O8            -1.2980     3.5276    -0.5171 O.2     
   9 O9            -2.5173     1.3457    -0.5231 O.2     
  10 N10           -1.9752     2.4685     1.6067 N.am    
  11 N11            1.2274    -2.1590    -0.0199 N.pl3   
  12 O12            0.1808    -2.7821    -0.0128 O.2     
  13 O13            2.2902    -2.7538    -0.0328 O.2     
  14 F14            3.5766    -0.6294    -0.0343 F       
  15 H15           -0.9259    -0.5565     0.0079 H       
  16 H16            3.3046     1.9675    -0.0191 H       
  17 H17            1.1543     3.1667     0.0081 H       
  18 H18           -2.5011     3.2428     1.8613 H       
  19 H19           -1.6956     1.8292     2.2805 H       
@<TRIPOS>BOND
   1    1    2 ar
   2    1    6 ar
   3    1    7 1
   4    2    3 ar
   5    2   15 1
   6    3    4 ar
   7    3   11 1
   8    4    5 ar
   9    4   14 1
  10    5    6 ar
  11    5   16 1
  12    6   17 1
  13    7    8 2
  14    7    9 2
  15    7   10 am
  16   10   18 1
  17   10   19 1
  18   11   12 2
  19   11   13 2

#	End of record

