#	Name: ASD03240001
#	Creating user name:	WinNT
#	Creation time:	15. 06. 2019 20:34

#	Modifying user name:	WinNT
#	Modification time:	15. 06. 2019 20:34

#	Program:	/corina/corina34_cracker 3.40 0067  02.08.2006

@<TRIPOS>MOLECULE
ASD03240001
  47   50    0    0    0
SMALL
NO_CHARGES


@<TRIPOS>ATOM
   1 C1            -0.0619     1.0690    -0.0350 C.ar    
   2 C2             0.0868    -0.2981    -0.2592 C.ar    
   3 C3             1.3222    -0.8657    -0.3309 C.ar    
   4 C4             2.4676    -0.0655    -0.1776 C.ar    
   5 C5             2.3161     1.3267     0.0502 C.ar    
   6 C6             1.0240     1.8758     0.1183 C.ar    
   7 N7             3.6918    -0.6002    -0.2435 N.ar    
   8 C8             4.7532     0.1708    -0.0962 C.ar    
   9 C9             4.6019     1.5614     0.1313 C.ar    
  10 N10            3.3981     2.0990     0.1981 N.ar    
  11 C11            5.8008     2.4160     0.2949 C.ar    
  12 C12            6.1095    -0.4208    -0.1686 C.ar    
  13 C13            7.1078     0.2062    -0.9137 C.ar    
  14 C14            8.3692    -0.3497    -0.9774 C.ar    
  15 C15            8.6443    -1.5265    -0.3040 C.ar    
  16 C16            7.6580    -2.1532     0.4364 C.ar    
  17 C17            6.3945    -1.6037     0.5127 C.ar    
  18 C18            5.8839     3.6400    -0.3684 C.ar    
  19 C19            7.0030     4.4319    -0.2117 C.ar    
  20 C20            8.0414     4.0137     0.6012 C.ar    
  21 C21            7.9647     2.8006     1.2618 C.ar    
  22 C22            6.8483     2.0026     1.1175 C.ar    
  23 C23            9.2612     4.8829     0.7673 C.3     
  24 N24            8.8796     6.2944     0.6256 N.3     
  25 C25            9.8650     4.6546     2.1544 C.3     
  26 C26           10.2931     4.5236    -0.3036 C.3     
  27 H27           -1.0529     1.4956     0.0135 H       
  28 H28           -0.7907    -0.9165    -0.3775 H       
  29 H29            1.4218    -1.9270    -0.5045 H       
  30 H30            0.8931     2.9337     0.2916 H       
  31 H31            6.8941     1.1246    -1.4401 H       
  32 H32            9.1431     0.1346    -1.5543 H       
  33 H33            9.6331    -1.9577    -0.3568 H       
  34 H34            7.8785    -3.0720     0.9594 H       
  35 H35            5.6254    -2.0937     1.0913 H       
  36 H36            5.0742     3.9671    -1.0038 H       
  37 H37            7.0685     5.3799    -0.7248 H       
  38 H38            8.7787     2.4793     1.8947 H       
  39 H39            6.7895     1.0559     1.6340 H       
  40 H40            8.4778     6.4709    -0.2830 H       
  41 H41            8.2476     6.5737     1.3609 H       
  42 H42           10.1482     3.6073     2.2595 H       
  43 H43           10.7473     5.2833     2.2746 H       
  44 H44            9.1299     4.9106     2.9174 H       
  45 H45            9.8629     4.6863    -1.2918 H       
  46 H46           11.1754     5.1523    -0.1835 H       
  47 H47           10.5762     3.4763    -0.1985 H       
@<TRIPOS>BOND
   1    1    2 ar
   2    1    6 ar
   3    1   27 1
   4    2    3 ar
   5    2   28 1
   6    3    4 ar
   7    3   29 1
   8    4    5 ar
   9    4    7 ar
  10    5    6 ar
  11    5   10 ar
  12    6   30 1
  13    7    8 ar
  14    8    9 ar
  15    8   12 1
  16    9   10 ar
  17    9   11 1
  18   11   18 ar
  19   11   22 ar
  20   12   13 ar
  21   12   17 ar
  22   13   14 ar
  23   13   31 1
  24   14   15 ar
  25   14   32 1
  26   15   16 ar
  27   15   33 1
  28   16   17 ar
  29   16   34 1
  30   17   35 1
  31   18   19 ar
  32   18   36 1
  33   19   20 ar
  34   19   37 1
  35   20   21 ar
  36   20   23 1
  37   21   22 ar
  38   21   38 1
  39   22   39 1
  40   23   24 1
  41   23   25 1
  42   23   26 1
  43   24   40 1
  44   24   41 1
  45   25   42 1
  46   25   43 1
  47   25   44 1
  48   26   45 1
  49   26   46 1
  50   26   47 1

#	End of record

