#	Name: ASD03731255
#	Creating user name:	WinNT
#	Creation time:	15. 06. 2019 20:45

#	Modifying user name:	WinNT
#	Modification time:	15. 06. 2019 20:45

#	Program:	/corina/corina34_cracker 3.40 0067  02.08.2006

@<TRIPOS>MOLECULE
ASD03731255
  54   59    0    0    0
SMALL
NO_CHARGES


@<TRIPOS>ATOM
   1 N1            -0.0162     1.3436     0.0094 N.am    
   2 C2             0.0561     0.0126     0.2091 C.2     
   3 O3             1.1401    -0.5294     0.3072 O.2     
   4 N4            -1.0731    -0.7175     0.3001 N.am    
   5 C5            -0.9945    -2.1642     0.5171 C.3     
   6 C6            -2.4074    -2.7477     0.5817 C.3     
   7 O7             2.5549    -7.0752     3.4696 O.3     
   8 C8             3.0261    -8.3612     3.9138 C.3     
   9 O9             1.8626    -8.9650     4.5093 O.3     
  10 C10            0.7926    -8.3994     3.8767 C.ar    
  11 C11            1.2188    -7.2369     3.2384 C.ar    
  12 C12           -0.5319    -8.7894     3.7916 C.ar    
  13 C13           -1.4468    -8.0263     3.0724 C.ar    
  14 C14           -1.0109    -6.8626     2.4460 C.ar    
  15 C15            0.3103    -6.4744     2.5238 C.ar    
  16 O16           -2.7759    -8.2381     2.8516 O.3     
  17 C17           -2.2182    -6.2536     1.7847 C.3     
  18 C18           -3.3902    -7.0046     2.4311 C.3     
  19 N19           -2.3288    -4.1944     0.7987 N.am    
  20 C20           -2.3064    -4.7726     2.0162 C.2     
  21 C21           -2.1990    -6.4227     0.2944 C.ar    
  22 C22           -2.1313    -7.5176    -0.5380 C.ar    
  23 C23           -2.1336    -7.3455    -1.9108 C.ar    
  24 C24           -2.2034    -6.0716    -2.4447 C.ar    
  25 C25           -2.2703    -4.9717    -1.6151 C.ar    
  26 C26           -2.2690    -5.1355    -0.2320 C.ar    
  27 O27           -2.3496    -4.2074     3.0885 O.2     
  28 C28            1.1512     2.1163     0.0123 C.ar    
  29 C29            2.3299     1.5972    -0.5068 C.ar    
  30 C30            3.4808     2.3624    -0.5031 C.ar    
  31 C31            3.4585     3.6455     0.0183 C.ar    
  32 C32            2.2850     4.1639     0.5357 C.ar    
  33 C33            1.1308     3.4048     0.5290 C.ar    
  34 Cl34           4.9057     4.6043     0.0228 Cl      
  35 Cl35           4.9551     1.7149    -1.1517 Cl      
  36 H36           -0.8767     1.7655    -0.1402 H       
  37 H37           -1.9378    -0.2851     0.2218 H       
  38 H38           -0.4480    -2.6258    -0.3053 H       
  39 H39           -0.4759    -2.3632     1.4550 H       
  40 H40           -2.9539    -2.2861     1.4041 H       
  41 H41           -2.9259    -2.5487    -0.3562 H       
  42 H42            3.3750    -8.9541     3.0684 H       
  43 H43            3.8179    -8.2442     4.6536 H       
  44 H44           -0.8581    -9.6921     4.2867 H       
  45 H45            0.6370    -5.5731     2.0264 H       
  46 H46           -4.1782    -7.1934     1.7022 H       
  47 H47           -3.7778    -6.4535     3.2879 H       
  48 H48           -2.0768    -8.5114    -0.1189 H       
  49 H49           -2.0815    -8.2040    -2.5640 H       
  50 H50           -2.2050    -5.9373    -3.5163 H       
  51 H51           -2.3240    -3.9801    -2.0394 H       
  52 H52            2.3474     0.5966    -0.9126 H       
  53 H53            2.2703     5.1644     0.9420 H       
  54 H54            0.2140     3.8120     0.9291 H       
@<TRIPOS>BOND
   1    1    2 am
   2    1   28 1
   3    1   36 1
   4    2    3 2
   5    2    4 am
   6    4    5 1
   7    4   37 1
   8    5    6 1
   9    5   38 1
  10    5   39 1
  11    6   19 1
  12    6   40 1
  13    6   41 1
  14    7    8 1
  15    7   11 1
  16    8    9 1
  17    8   42 1
  18    8   43 1
  19    9   10 1
  20   10   11 ar
  21   10   12 ar
  22   11   15 ar
  23   12   13 ar
  24   12   44 1
  25   13   14 ar
  26   13   16 1
  27   14   15 ar
  28   14   17 1
  29   15   45 1
  30   16   18 1
  31   17   18 1
  32   17   20 1
  33   17   21 1
  34   18   46 1
  35   18   47 1
  36   19   20 am
  37   19   26 1
  38   20   27 2
  39   21   22 ar
  40   21   26 ar
  41   22   23 ar
  42   22   48 1
  43   23   24 ar
  44   23   49 1
  45   24   25 ar
  46   24   50 1
  47   25   26 ar
  48   25   51 1
  49   28   29 ar
  50   28   33 ar
  51   29   30 ar
  52   29   52 1
  53   30   31 ar
  54   30   35 1
  55   31   32 ar
  56   31   34 1
  57   32   33 ar
  58   32   53 1
  59   33   54 1

#	End of record

