#	Name: ASD03331358
#	Creating user name:	WinNT
#	Creation time:	15. 06. 2019 20:39

#	Modifying user name:	WinNT
#	Modification time:	15. 06. 2019 20:39

#	Program:	/corina/corina34_cracker 3.40 0067  02.08.2006

@<TRIPOS>MOLECULE
ASD03331358
  56   58    0    0    0
SMALL
NO_CHARGES


@<TRIPOS>ATOM
   1 C1             0.6424     0.9662     1.7725 C.ar    
   2 C2             0.5097    -0.4534     1.3785 C.2     
   3 N3            -0.5460    -1.2593     1.6607 N.pl3   
   4 C4            -0.2795    -2.4870     1.1254 C.2     
   5 C5             0.9325    -2.4075     0.5249 C.2     
   6 N6             1.3916    -1.1454     0.6914 N.2     
   7 C7             1.6236    -3.4974    -0.1863 C.2     
   8 N8             2.8327    -3.2801    -0.7406 N.am    
   9 C9            -0.1872     1.4990     2.7595 C.ar    
  10 O10            1.1029    -4.5931    -0.2731 O.2     
  11 C11            3.5198    -4.3637    -1.4477 C.3     
  12 C12            3.0289    -4.4196    -2.8957 C.3     
  13 C13            5.0056    -4.1120    -1.4303 C.2     
  14 C14            3.2394    -3.0568    -3.5586 C.3     
  15 C15           -1.7792    -0.9552     2.3920 C.3     
  16 C16           -2.8020    -2.0555     2.0775 C.3     
  17 O17           -2.1970    -3.3413     2.2378 O.3     
  18 C18           -1.2209    -3.6588     1.2343 C.3     
  19 C19            3.8162    -5.4856    -3.6603 C.3     
  20 C20            1.5403    -4.7723    -2.9163 C.3     
  21 O21            5.4293    -2.9972    -1.2099 O.2     
  22 N22            5.8635    -5.1258    -1.6598 N.am    
  23 C23            7.3067    -4.9063    -1.5360 C.3     
  24 C24           -0.0589     2.8254     3.1234 C.ar    
  25 C25            0.8930     3.6262     2.5082 C.ar    
  26 C26            1.7179     3.1001     1.5274 C.ar    
  27 C27            1.6018     1.7752     1.1621 C.ar    
  28 F28            1.0151     4.9231     2.8665 F       
  29 F29           -0.8611     3.3436     4.0789 F       
  30 C30            8.0489    -6.2076    -1.8468 C.3     
  31 H31            3.2480    -2.4062    -0.6714 H       
  32 H32           -0.9284     0.8759     3.2377 H       
  33 H33            3.3062    -5.3120    -0.9548 H       
  34 H34            4.2999    -2.8055    -3.5439 H       
  35 H35            2.8897    -3.0966    -4.5902 H       
  36 H36            2.6785    -2.2973    -3.0139 H       
  37 H37           -1.5770    -0.9356     3.4629 H       
  38 H38           -2.1682     0.0115     2.0723 H       
  39 H39           -3.6498    -1.9668     2.7569 H       
  40 H40           -3.1494    -1.9442     1.0504 H       
  41 H41           -1.7154    -3.8256     0.2774 H       
  42 H42           -0.6678    -4.5515     1.5260 H       
  43 H43            3.6784    -6.4539    -3.1792 H       
  44 H44            3.4562    -5.5360    -4.6879 H       
  45 H45            4.8750    -5.2264    -3.6586 H       
  46 H46            0.9794    -4.0128    -2.3716 H       
  47 H47            1.1906    -4.8121    -3.9479 H       
  48 H48            1.3904    -5.7431    -2.4441 H       
  49 H49            5.5254    -6.0007    -1.9069 H       
  50 H50            7.6183    -4.1335    -2.2387 H       
  51 H51            7.5400    -4.5888    -0.5197 H       
  52 H52            2.4567     3.7276     1.0510 H       
  53 H53            2.2458     1.3668     0.3973 H       
  54 H54            7.7373    -6.9804    -1.1441 H       
  55 H55            7.8156    -6.5252    -2.8631 H       
  56 H56            9.1227    -6.0443    -1.7547 H       
@<TRIPOS>BOND
   1    1    2 1
   2    1    9 ar
   3    1   27 ar
   4    2    3 1
   5    2    6 2
   6    3    4 1
   7    3   15 1
   8    4    5 2
   9    4   18 1
  10    5    6 1
  11    5    7 1
  12    7    8 am
  13    7   10 2
  14    8   11 1
  15    8   31 1
  16    9   24 ar
  17    9   32 1
  18   11   12 1
  19   11   13 1
  20   11   33 1
  21   12   14 1
  22   12   19 1
  23   12   20 1
  24   13   21 2
  25   13   22 am
  26   14   34 1
  27   14   35 1
  28   14   36 1
  29   15   16 1
  30   15   37 1
  31   15   38 1
  32   16   17 1
  33   16   39 1
  34   16   40 1
  35   17   18 1
  36   18   41 1
  37   18   42 1
  38   19   43 1
  39   19   44 1
  40   19   45 1
  41   20   46 1
  42   20   47 1
  43   20   48 1
  44   22   23 1
  45   22   49 1
  46   23   30 1
  47   23   50 1
  48   23   51 1
  49   24   25 ar
  50   24   29 1
  51   25   26 ar
  52   25   28 1
  53   26   27 ar
  54   26   52 1
  55   27   53 1
  56   30   54 1
  57   30   55 1
  58   30   56 1

#	End of record

