#	Name: ASD01912281
#	Creating user name:	WinNT
#	Creation time:	15. 06. 2019 19:59

#	Modifying user name:	WinNT
#	Modification time:	15. 06. 2019 19:59

#	Program:	/corina/corina34_cracker 3.40 0067  02.08.2006

@<TRIPOS>MOLECULE
ASD01912281
  55   57    0    0    0
SMALL
NO_CHARGES


@<TRIPOS>ATOM
   1 N1            -4.9008     1.5078    -0.3976 N.am    
   2 C2            -6.2982     1.4076     0.0429 C.3     
   3 C3            -7.1120     0.7066    -1.0522 C.3     
   4 C4            -6.3819    -0.5552    -1.4569 C.2     
   5 C5            -4.9276    -0.4469    -1.8599 C.3     
   6 C6            -4.1685     0.2831    -0.7446 C.3     
   7 C7            -4.2991     2.7105    -0.4878 C.2     
   8 O8            -4.9696     3.7195    -0.5909 O.2     
   9 N9            -2.9542     2.7946    -0.4637 N.am    
  10 C10           -7.0043    -1.7332    -1.4580 C.2     
  11 C11           -6.2965    -2.9166    -1.8442 C.1     
  12 C12           -5.7163    -3.8868    -2.1608 C.1     
  13 C13           -5.0085    -5.0702    -2.5470 C.ar    
  14 C14           -5.6663    -6.3037    -2.5464 C.ar    
  15 C15           -4.9683    -7.4367    -2.9220 C.ar    
  16 C16           -3.6349    -7.3043    -3.2869 C.ar    
  17 C17           -3.0451    -6.0536    -3.2653 C.ar    
  18 N18           -3.7314    -4.9874    -2.9090 N.ar    
  19 C19           -1.5983    -5.9077    -3.6609 C.3     
  20 C20           -2.1505     1.6015    -0.1864 C.3     
  21 C21           -2.2960     4.0791    -0.7148 C.3     
  22 C22           -1.0593     4.2015     0.1776 C.3     
  23 C23           -1.8811     4.1566    -2.1615 C.ar    
  24 C24           -1.1484     3.1295    -2.7264 C.ar    
  25 C25           -0.7678     3.2006    -4.0534 C.ar    
  26 C26           -1.1204     4.2986    -4.8157 C.ar    
  27 C27           -1.8539     5.3253    -4.2510 C.ar    
  28 C28           -2.2382     5.2522    -2.9252 C.ar    
  29 H29           -6.3501     0.8279     0.9645 H       
  30 H30           -6.6999     2.4064     0.2139 H       
  31 H31           -8.1001     0.4519    -0.6689 H       
  32 H32           -7.2112     1.3659    -1.9146 H       
  33 H33           -4.5094    -1.4441    -1.9966 H       
  34 H34           -4.8454     0.1166    -2.7894 H       
  35 H35           -3.1682     0.5414    -1.0919 H       
  36 H36           -4.0982    -0.3613     0.1318 H       
  37 H37           -8.0427    -1.7955    -1.1676 H       
  38 H38           -6.7045    -6.3709    -2.2564 H       
  39 H39           -5.4495    -8.4036    -2.9311 H       
  40 H40           -3.0632    -8.1708    -3.5848 H       
  41 H41           -1.5317    -5.7226    -4.7330 H       
  42 H42           -1.1562    -5.0713    -3.1195 H       
  43 H43           -1.0606    -6.8237    -3.4162 H       
  44 H44           -1.9141     1.0969    -1.1232 H       
  45 H45           -1.2263     1.8938     0.3122 H       
  46 H46           -2.7131     0.9262     0.4582 H       
  47 H47           -2.9874     4.8915    -0.4911 H       
  48 H48           -0.5696     5.1572    -0.0092 H       
  49 H49           -1.3594     4.1455     1.2240 H       
  50 H50           -0.3679     3.3891    -0.0461 H       
  51 H51           -0.8730     2.2717    -2.1309 H       
  52 H52           -0.1948     2.3985    -4.4946 H       
  53 H53           -0.8224     4.3545    -5.8523 H       
  54 H54           -2.1290     6.1833    -4.8465 H       
  55 H55           -2.8144     6.0526    -2.4850 H       
@<TRIPOS>BOND
   1    1    2 1
   2    1    6 1
   3    1    7 am
   4    2    3 1
   5    2   29 1
   6    2   30 1
   7    3    4 1
   8    3   31 1
   9    3   32 1
  10    4    5 1
  11    4   10 2
  12    5    6 1
  13    5   33 1
  14    5   34 1
  15    6   35 1
  16    6   36 1
  17    7    8 2
  18    7    9 am
  19    9   20 1
  20    9   21 1
  21   10   11 1
  22   10   37 1
  23   11   12 3
  24   12   13 1
  25   13   14 ar
  26   13   18 ar
  27   14   15 ar
  28   14   38 1
  29   15   16 ar
  30   15   39 1
  31   16   17 ar
  32   16   40 1
  33   17   18 ar
  34   17   19 1
  35   19   41 1
  36   19   42 1
  37   19   43 1
  38   20   44 1
  39   20   45 1
  40   20   46 1
  41   21   22 1
  42   21   23 1
  43   21   47 1
  44   22   48 1
  45   22   49 1
  46   22   50 1
  47   23   24 ar
  48   23   28 ar
  49   24   25 ar
  50   24   51 1
  51   25   26 ar
  52   25   52 1
  53   26   27 ar
  54   26   53 1
  55   27   28 ar
  56   27   54 1
  57   28   55 1

#	End of record

