#	Name: ASD01420209
#	Creating user name:	WinNT
#	Creation time:	15. 06. 2019 19:20

#	Modifying user name:	WinNT
#	Modification time:	15. 06. 2019 19:20

#	Program:	/corina/corina34_cracker 3.40 0067  02.08.2006

@<TRIPOS>MOLECULE
ASD01420209
  57   59    0    0    0
SMALL
NO_CHARGES


@<TRIPOS>ATOM
   1 C1            -0.0184     1.5028     0.0103 C.2     
   2 C2             0.0021    -0.0041     0.0020 C.3     
   3 C3             1.2402     2.2524     0.0023 C.ar    
   4 C4             1.2252     3.6591     0.0100 C.ar    
   5 C5             2.4210     4.3555     0.0023 C.ar    
   6 C6             3.6246     3.6647    -0.0130 C.ar    
   7 C7             3.6362     2.2724    -0.0210 C.ar    
   8 C8             2.4652     1.5719    -0.0072 C.ar    
   9 C9             4.9501     1.5345    -0.0386 C.3     
  10 C10            4.6884     0.0271    -0.0445 C.3     
  11 C11            5.7352     1.9208    -1.2937 C.3     
  12 C12            5.7606     1.9066     1.2046 C.3     
  13 O13            4.7957     4.3494    -0.0205 O.3     
  14 C14            4.7132     5.7760    -0.0121 C.3     
  15 C15            6.1026     6.3596    -0.0222 C.ar    
  16 C16            6.7283     6.6337    -1.2240 C.ar    
  17 C17            8.0028     7.1690    -1.2333 C.ar    
  18 C18            8.6513     7.4306    -0.0409 C.ar    
  19 C19            8.0252     7.1574     1.1608 C.ar    
  20 C20            6.7491     6.6261     1.1702 C.ar    
  21 O21            0.0460     4.3286     0.0245 O.3     
  22 C22            0.1106     5.7562     0.0315 C.3     
  23 C23           -1.2861     6.3221     0.0474 C.ar    
  24 C24           -1.9156     6.5752     1.2518 C.ar    
  25 C25           -3.1967     7.0943     1.2664 C.ar    
  26 C26           -3.8481     7.3607     0.0766 C.ar    
  27 C27           -3.2182     7.1084    -1.1278 C.ar    
  28 C28           -1.9355     6.5934    -1.1423 C.ar    
  29 O29           -1.0773     2.0951     0.0185 O.2     
  30 H30            0.5293    -0.3651     0.8851 H       
  31 H31           -1.0205    -0.3814     0.0098 H       
  32 H32            0.5123    -0.3556    -0.8948 H       
  33 H33            2.4177     5.4355     0.0078 H       
  34 H34            2.4824     0.4920    -0.0083 H       
  35 H35            4.1110    -0.2380    -0.9302 H       
  36 H36            5.6387    -0.5066    -0.0572 H       
  37 H37            4.1291    -0.2481     0.8497 H       
  38 H38            5.9216     2.9947    -1.2894 H       
  39 H39            6.6855     1.3871    -1.3064 H       
  40 H40            5.1578     1.6558    -2.1794 H       
  41 H41            5.2012     1.6314     2.0988 H       
  42 H42            6.7109     1.3729     1.1919 H       
  43 H43            5.9470     2.9805     1.2089 H       
  44 H44            4.1708     6.1138    -0.8951 H       
  45 H45            4.1878     6.1043     0.8848 H       
  46 H46            6.2216     6.4293    -2.1556 H       
  47 H47            8.4920     7.3825    -2.1722 H       
  48 H48            9.6473     7.8482    -0.0482 H       
  49 H49            8.5321     7.3615     2.0924 H       
  50 H50            6.2585     6.4161     2.1091 H       
  51 H51            0.6484     6.0912     0.9184 H       
  52 H52            0.6321     6.1007    -0.8614 H       
  53 H53           -1.4067     6.3671     2.1814 H       
  54 H54           -3.6888     7.2914     2.2073 H       
  55 H55           -4.8493     7.7655     0.0880 H       
  56 H56           -3.7273     7.3162    -2.0573 H       
  57 H57           -1.4420     6.3997    -2.0833 H       
@<TRIPOS>BOND
   1    1    2 1
   2    1    3 1
   3    1   29 2
   4    2   30 1
   5    2   31 1
   6    2   32 1
   7    3    4 ar
   8    3    8 ar
   9    4    5 ar
  10    4   21 1
  11    5    6 ar
  12    5   33 1
  13    6    7 ar
  14    6   13 1
  15    7    8 ar
  16    7    9 1
  17    8   34 1
  18    9   10 1
  19    9   12 1
  20    9   11 1
  21   10   35 1
  22   10   36 1
  23   10   37 1
  24   11   38 1
  25   11   39 1
  26   11   40 1
  27   12   41 1
  28   12   42 1
  29   12   43 1
  30   13   14 1
  31   14   15 1
  32   14   44 1
  33   14   45 1
  34   15   16 ar
  35   15   20 ar
  36   16   17 ar
  37   16   46 1
  38   17   18 ar
  39   17   47 1
  40   18   19 ar
  41   18   48 1
  42   19   20 ar
  43   19   49 1
  44   20   50 1
  45   21   22 1
  46   22   23 1
  47   22   51 1
  48   22   52 1
  49   23   24 ar
  50   23   28 ar
  51   24   25 ar
  52   24   53 1
  53   25   26 ar
  54   25   54 1
  55   26   27 ar
  56   26   55 1
  57   27   28 ar
  58   27   56 1
  59   28   57 1

#	End of record

