#	Name: ASD01814545
#	Creating user name:	WinNT
#	Creation time:	15. 06. 2019 19:32

#	Modifying user name:	WinNT
#	Modification time:	15. 06. 2019 19:32

#	Program:	/corina/corina34_cracker 3.40 0067  02.08.2006

@<TRIPOS>MOLECULE
ASD01814545
  56   59    0    0    0
SMALL
NO_CHARGES


@<TRIPOS>ATOM
   1 C1            -0.0168     1.3881     0.0097 C.ar    
   2 C2             0.0021    -0.0041     0.0020 C.ar    
   3 C3             1.1796    -0.6892    -0.0129 C.ar    
   4 C4             2.3944     0.0145    -0.0206 C.ar    
   5 C5             2.3745     1.4311    -0.0129 C.ar    
   6 C6             1.1425     2.1037     0.0024 C.ar    
   7 C7             3.6273    -0.6672    -0.0355 C.ar    
   8 C8             4.7912     0.0276    -0.0424 C.ar    
   9 C9             4.7935     1.4357    -0.0345 C.ar    
  10 C10            3.5923     2.1420    -0.0202 C.ar    
  11 O11            3.5945     3.4962    -0.0126 O.3     
  12 C12            3.5847     4.1521    -1.2822 C.3     
  13 C13            6.0715     2.1655    -0.0419 C.2     
  14 O14            6.0774     3.3809    -0.0351 O.2     
  15 O15            7.2356     1.4861    -0.0561 O.3     
  16 C16            3.6522    -2.1739    -0.0431 C.3     
  17 N17            3.4071    -2.6608    -1.4073 N.3     
  18 C18            3.6566    -4.1047    -1.5035 C.3     
  19 C19            4.2122    -1.9165    -2.3842 C.3     
  20 C20            3.8256    -2.3484    -3.8006 C.3     
  21 C21            4.0657    -3.8528    -3.9537 C.3     
  22 C22            3.2534    -4.6018    -2.8936 C.3     
  23 C23            3.6306    -4.2951    -5.3270 C.ar    
  24 C24            4.0310    -5.5278    -5.8063 C.ar    
  25 N25            2.8676    -3.5035    -6.0554 N.ar    
  26 C26            2.4624    -3.8488    -7.2617 C.ar    
  27 C27            2.8275    -5.0644    -7.8092 C.ar    
  28 C28            3.6247    -5.9255    -7.0711 C.ar    
  29 C29            4.0448    -7.2595    -7.6323 C.3     
  30 C30            5.4973    -4.1434    -3.7725 C.1     
  31 N31            6.6022    -4.3677    -3.6327 N.1     
  32 H32           -0.9635     1.9079     0.0170 H       
  33 H33           -0.9304    -0.5489     0.0083 H       
  34 H34            1.1785    -1.7692    -0.0183 H       
  35 H35            1.1137     3.1833     0.0085 H       
  36 H36            5.7299    -0.5063    -0.0538 H       
  37 H37            4.4694     3.8610    -1.8484 H       
  38 H38            2.6895     3.8638    -1.8331 H       
  39 H39            3.5877     5.2319    -1.1333 H       
  40 H40            8.0490     2.0089    -0.0605 H       
  41 H41            4.6270    -2.5230     0.2976 H       
  42 H42            2.8772    -2.5535     0.6228 H       
  43 H43            4.7162    -4.3018    -1.3405 H       
  44 H44            3.0698    -4.6258    -0.7471 H       
  45 H45            4.0290    -0.8484    -2.2674 H       
  46 H46            5.2692    -2.1239    -2.2171 H       
  47 H47            2.7720    -2.1286    -3.9732 H       
  48 H48            4.4343    -1.8071    -4.5249 H       
  49 H49            3.4533    -5.6706    -2.9700 H       
  50 H50            2.1908    -4.4175    -3.0519 H       
  51 H51            4.6527    -6.1731    -5.2035 H       
  52 H52            1.8379    -3.1742    -7.8285 H       
  53 H53            2.4924    -5.3416    -8.7978 H       
  54 H54            4.9866    -7.1474    -8.1695 H       
  55 H55            4.1738    -7.9720    -6.8176 H       
  56 H56            3.2778    -7.6240    -8.3157 H       
@<TRIPOS>BOND
   1    1    2 ar
   2    1    6 ar
   3    1   32 1
   4    2    3 ar
   5    2   33 1
   6    3    4 ar
   7    3   34 1
   8    4    5 ar
   9    4    7 ar
  10    5    6 ar
  11    5   10 ar
  12    6   35 1
  13    7    8 ar
  14    7   16 1
  15    8    9 ar
  16    8   36 1
  17    9   10 ar
  18    9   13 1
  19   10   11 1
  20   11   12 1
  21   12   37 1
  22   12   38 1
  23   12   39 1
  24   13   14 2
  25   13   15 1
  26   15   40 1
  27   16   17 1
  28   16   41 1
  29   16   42 1
  30   17   18 1
  31   17   19 1
  32   18   22 1
  33   18   43 1
  34   18   44 1
  35   19   20 1
  36   19   45 1
  37   19   46 1
  38   20   21 1
  39   20   47 1
  40   20   48 1
  41   21   22 1
  42   21   23 1
  43   21   30 1
  44   22   49 1
  45   22   50 1
  46   23   24 ar
  47   23   25 ar
  48   24   28 ar
  49   24   51 1
  50   25   26 ar
  51   26   27 ar
  52   26   52 1
  53   27   28 ar
  54   27   53 1
  55   28   29 1
  56   29   54 1
  57   29   55 1
  58   29   56 1
  59   30   31 3

#	End of record

