#	Name: ASD03330960
#	Creating user name:	WinNT
#	Creation time:	15. 06. 2019 20:38

#	Modifying user name:	WinNT
#	Modification time:	15. 06. 2019 20:38

#	Program:	/corina/corina34_cracker 3.40 0067  02.08.2006

@<TRIPOS>MOLECULE
ASD03330960
  77   80    0    0    0
SMALL
NO_CHARGES


@<TRIPOS>ATOM
   1 N1             0.3550     1.2604    -0.5539 N.pl3   
   2 C2             0.3767    -0.0952    -0.4521 C.2     
   3 C3             1.6142    -0.9538    -0.4289 C.3     
   4 N4             2.5816    -0.3801     0.5195 N.3     
   5 C5             3.4510     0.5983    -0.1366 C.3     
   6 C6             2.6989     1.3492    -1.2317 C.3     
   7 C7             1.5332     2.1297    -0.6184 C.3     
   8 C8            -0.9533     1.6479    -0.5717 C.2     
   9 N9            -1.7081     0.5794    -0.4671 N.2     
  10 C10           -0.9176    -0.5134    -0.3885 C.2     
  11 C11           -1.3743    -1.9083    -0.2577 C.2     
  12 O12           -0.5616    -2.8111    -0.1965 O.2     
  13 N13           -2.6926    -2.1837    -0.2060 N.am    
  14 C14            3.3717    -1.4349     1.1684 C.3     
  15 C15           -1.4395     3.0398    -0.6889 C.ar    
  16 C16           -2.4341     3.3600    -1.6169 C.ar    
  17 C17           -2.8840     4.6628    -1.7205 C.ar    
  18 C18           -2.3518     5.6476    -0.9084 C.ar    
  19 C19           -1.3658     5.3363     0.0124 C.ar    
  20 C20           -0.9114     4.0376     0.1303 C.ar    
  21 F21           -2.9543     2.3987    -2.4109 F       
  22 Cl22          -0.7039     6.5805     1.0261 Cl      
  23 C23           -4.5390    -3.6980    -0.6384 C.2     
  24 C24           -3.1467    -3.5705    -0.0760 C.3     
  25 C25           -3.1550    -3.9681     1.4014 C.3     
  26 C26           -4.1978    -3.1338     2.1482 C.3     
  27 O27           -5.2055    -2.7047    -0.8385 O.2     
  28 C28           -3.5035    -5.4524     1.5282 C.3     
  29 C29           -1.7722    -3.7155     2.0054 C.3     
  30 N30           -5.0435    -4.9159    -0.9190 N.am    
  31 N31           -8.9278    -6.3485    -1.5839 N.am    
  32 C32           -8.0038    -6.4503    -2.7217 C.3     
  33 C33           -6.5673    -6.3351    -2.2020 C.3     
  34 C34           -6.4247    -5.0458    -1.3899 C.3     
  35 C35           -7.3710    -5.0908    -0.1879 C.3     
  36 C36           -8.8166    -5.1918    -0.6848 C.3     
  37 C37           -9.8634    -7.2952    -1.3723 C.2     
  38 O38          -10.5565    -7.2514    -0.3780 O.2     
  39 C39          -10.0484    -8.4084    -2.3712 C.3     
  40 H40            1.3511    -1.9638    -0.1147 H       
  41 H41            2.0551    -0.9844    -1.4253 H       
  42 H42            3.8105     1.3119     0.6048 H       
  43 H43            4.3033     0.0812    -0.5774 H       
  44 H44            3.3781     2.0425    -1.7277 H       
  45 H45            2.3139     0.6364    -1.9609 H       
  46 H46            1.3112     2.9992    -1.2371 H       
  47 H47            1.8014     2.4552     0.3867 H       
  48 H48           -3.3408    -1.4637    -0.2548 H       
  49 H49            3.8613    -2.0423     0.4073 H       
  50 H50            4.1257    -0.9807     1.8113 H       
  51 H51            2.7143    -2.0644     1.7682 H       
  52 H52           -3.6523     4.9123    -2.4373 H       
  53 H53           -2.7065     6.6641    -0.9932 H       
  54 H54           -0.1457     3.7957     0.8525 H       
  55 H55           -2.4715    -4.2269    -0.6251 H       
  56 H56           -5.1830    -3.3138     1.7179 H       
  57 H57           -4.2038    -3.4170     3.2007 H       
  58 H58           -3.9495    -2.0763     2.0579 H       
  59 H59           -2.7522    -6.0476     1.0092 H       
  60 H60           -3.5245    -5.7321     2.5815 H       
  61 H61           -4.4821    -5.6351     1.0842 H       
  62 H62           -1.5239    -2.6580     1.9151 H       
  63 H63           -1.7781    -3.9987     3.0579 H       
  64 H64           -1.0293    -4.3098     1.4734 H       
  65 H65           -4.4921    -5.7063    -0.8093 H       
  66 H66           -8.1375    -7.4125    -3.2161 H       
  67 H67           -8.2028    -5.6437    -3.4274 H       
  68 H68           -6.3402    -7.1918    -1.5675 H       
  69 H69           -5.8763    -6.3126    -3.0447 H       
  70 H70           -6.6761    -4.1913    -2.0180 H       
  71 H71           -7.1363    -5.9592     0.4276 H       
  72 H72           -7.2520    -4.1825     0.4029 H       
  73 H73           -9.0819    -4.2827    -1.2243 H       
  74 H74           -9.4866    -5.3237     0.1648 H       
  75 H75           -9.2931    -8.3245    -3.1527 H       
  76 H76           -9.9448    -9.3695    -1.8675 H       
  77 H77          -11.0409    -8.3363    -2.8159 H       
@<TRIPOS>BOND
   1    1    2 1
   2    1    7 1
   3    1    8 1
   4    2    3 1
   5    2   10 2
   6    3    4 1
   7    3   40 1
   8    3   41 1
   9    4    5 1
  10    4   14 1
  11    5    6 1
  12    5   42 1
  13    5   43 1
  14    6    7 1
  15    6   44 1
  16    6   45 1
  17    7   46 1
  18    7   47 1
  19    8    9 2
  20    8   15 1
  21    9   10 1
  22   10   11 1
  23   11   12 2
  24   11   13 am
  25   13   24 1
  26   13   48 1
  27   14   49 1
  28   14   50 1
  29   14   51 1
  30   15   16 ar
  31   15   20 ar
  32   16   17 ar
  33   16   21 1
  34   17   18 ar
  35   17   52 1
  36   18   19 ar
  37   18   53 1
  38   19   20 ar
  39   19   22 1
  40   20   54 1
  41   23   27 2
  42   23   30 am
  43   23   24 1
  44   24   25 1
  45   24   55 1
  46   25   26 1
  47   25   28 1
  48   25   29 1
  49   26   56 1
  50   26   57 1
  51   26   58 1
  52   28   59 1
  53   28   60 1
  54   28   61 1
  55   29   62 1
  56   29   63 1
  57   29   64 1
  58   30   34 1
  59   30   65 1
  60   31   32 1
  61   31   36 1
  62   31   37 am
  63   32   33 1
  64   32   66 1
  65   32   67 1
  66   33   34 1
  67   33   68 1
  68   33   69 1
  69   34   35 1
  70   34   70 1
  71   35   36 1
  72   35   71 1
  73   35   72 1
  74   36   73 1
  75   36   74 1
  76   37   38 2
  77   37   39 1
  78   39   75 1
  79   39   76 1
  80   39   77 1

#	End of record

