#	Name: ASD01883978
#	Creating user name:	WinNT
#	Creation time:	15. 06. 2019 19:47

#	Modifying user name:	WinNT
#	Modification time:	15. 06. 2019 19:47

#	Program:	/corina/corina34_cracker 3.40 0067  02.08.2006

@<TRIPOS>MOLECULE
ASD01883978
  44   46    0    0    0
SMALL
NO_CHARGES


@<TRIPOS>ATOM
   1 C1            -0.0170     1.4017     0.0097 C.2     
   2 C2             0.0021    -0.0041     0.0020 C.2     
   3 C3            -1.2243    -0.6972     0.0100 C.2     
   4 C4            -2.3889    -0.0096     0.0247 C.2     
   5 N5            -2.4084     1.3479     0.0322 N.am    
   6 C6            -1.2693     2.0647     0.0312 C.2     
   7 C7            -3.6959     2.0468     0.0482 C.3     
   8 C8            -4.1304     2.2824     1.4962 C.3     
   9 C9            -5.4749     3.0123     1.5129 C.3     
  10 C10           -5.9694     3.1374     2.9554 C.3     
  11 C11           -5.3052     4.4078     0.9091 C.3     
  12 O12           -1.3148     3.2831     0.0383 O.2     
  13 C13            1.2047     2.1486     0.0021 C.1     
  14 N14            2.1740     2.7411    -0.0040 N.1     
  15 C15            1.2836    -0.7402    -0.0146 C.ar    
  16 C16            1.6455    -1.5376     1.0744 C.ar    
  17 C17            2.8344    -2.2205     1.0590 C.ar    
  18 C18            3.6839    -2.1195    -0.0459 C.ar    
  19 C19            3.3218    -1.3225    -1.1352 C.ar    
  20 C20            2.1307    -0.6434    -1.1218 C.ar    
  21 C21            4.9648    -2.8548    -0.0623 C.2     
  22 C22            6.8922    -3.6332    -0.6966 C.2     
  23 C23            6.6038    -4.1264     0.5228 C.2     
  24 N24            5.4124    -3.6361     0.8929 N.2     
  25 O25            5.8653    -2.8408    -1.0607 O.3     
  26 H26           -1.2345    -1.7771     0.0039 H       
  27 H27           -3.3229    -0.5519     0.0303 H       
  28 H28           -3.5955     3.0051    -0.4615 H       
  29 H29           -4.4447     1.4408    -0.4618 H       
  30 H30           -4.2308     1.3241     2.0058 H       
  31 H31           -3.3816     2.8884     2.0062 H       
  32 H32           -6.2014     2.4490     0.9273 H       
  33 H33           -5.2429     3.7007     3.5409 H       
  34 H34           -6.9273     3.6574     2.9673 H       
  35 H35           -6.0904     2.1432     3.3855 H       
  36 H36           -4.5786     4.9712     1.4947 H       
  37 H37           -4.9529     4.3187    -0.1185 H       
  38 H38           -6.2630     4.9279     0.9210 H       
  39 H39            0.9889    -1.6157     1.9284 H       
  40 H40            3.1144    -2.8362     1.9010 H       
  41 H41            3.9785    -1.2441    -1.9890 H       
  42 H42            1.8506    -0.0277    -1.9638 H       
  43 H43            7.7815    -3.8353    -1.2752 H       
  44 H44            7.2226    -4.7973     1.1001 H       
@<TRIPOS>BOND
   1    1    2 2
   2    1   13 1
   3    1    6 1
   4    2    3 1
   5    2   15 1
   6    3    4 2
   7    3   26 1
   8    4    5 1
   9    4   27 1
  10    5    7 1
  11    5    6 am
  12    6   12 2
  13    7    8 1
  14    7   28 1
  15    7   29 1
  16    8    9 1
  17    8   30 1
  18    8   31 1
  19    9   10 1
  20    9   11 1
  21    9   32 1
  22   10   33 1
  23   10   34 1
  24   10   35 1
  25   11   36 1
  26   11   37 1
  27   11   38 1
  28   13   14 3
  29   15   16 ar
  30   15   20 ar
  31   16   17 ar
  32   16   39 1
  33   17   18 ar
  34   17   40 1
  35   18   19 ar
  36   18   21 1
  37   19   20 ar
  38   19   41 1
  39   20   42 1
  40   21   25 1
  41   21   24 2
  42   22   23 2
  43   22   25 1
  44   22   43 1
  45   23   24 1
  46   23   44 1

#	End of record

