#	Name: ASD01200120
#	Creating user name:	WinNT
#	Creation time:	15. 06. 2019 19:08

#	Modifying user name:	WinNT
#	Modification time:	15. 06. 2019 19:08

#	Program:	/corina/corina34_cracker 3.40 0067  02.08.2006

@<TRIPOS>MOLECULE
ASD01200120
  50   53    0    0    0
SMALL
NO_CHARGES


@<TRIPOS>ATOM
   1 C1            -0.0196     1.3722    -0.0082 C.ar    
   2 C2             0.0019    -0.0110    -0.0155 C.ar    
   3 C3             1.2098    -0.6889    -0.0249 C.ar    
   4 C4             2.3918     0.0142    -0.0269 C.ar    
   5 C5             2.3818     1.4113    -0.0195 C.ar    
   6 C6             1.1606     2.0872    -0.0101 C.ar    
   7 C7             3.8416    -0.4018    -0.0360 C.3     
   8 N8             4.6249     0.8390    -0.0333 N.am    
   9 C9             3.7794     1.8839    -0.0237 C.2     
  10 O10            4.1180     3.0514    -0.0189 O.2     
  11 S11            4.2186    -1.3803     1.4442 S.3     
  12 C12            6.0874     0.9247    -0.0398 C.3     
  13 C13            6.5820     0.9615    -1.4628 C.ar    
  14 C14            3.6296    -3.0372     0.9990 C.3     
  15 C15            3.8761    -3.9830     2.1461 C.2     
  16 O16            4.3977    -3.5791     3.1636 O.2     
  17 N17            3.5169    -5.2777     2.0411 N.am    
  18 C18            6.7389     2.1735    -2.1089 C.ar    
  19 C19            7.1926     2.2073    -3.4143 C.ar    
  20 C20            7.4899     1.0291    -4.0734 C.ar    
  21 C21            7.3339    -0.1828    -3.4270 C.ar    
  22 C22            6.8843    -0.2164    -2.1202 C.ar    
  23 C23            3.8402    -6.1727     3.0536 C.ar    
  24 N24            4.5855    -5.7661     4.0713 N.ar    
  25 C25            4.9169    -6.5785     5.0530 C.ar    
  26 C26            4.4876    -7.9071     5.0490 C.ar    
  27 C27            3.6971    -8.3640     3.9833 C.ar    
  28 C28            3.3717    -7.4826     2.9871 C.ar    
  29 C29            4.8598    -8.8169     6.1483 C.2     
  30 O30            5.6195    -8.3679     7.1665 O.3     
  31 O31            4.4813    -9.9714     6.1359 O.2     
  32 H32           -0.9646     1.8950    -0.0055 H       
  33 H33           -0.9259    -0.5640    -0.0136 H       
  34 H34            1.2234    -1.7688    -0.0302 H       
  35 H35            1.1394     3.1670    -0.0047 H       
  36 H36            4.0596    -0.9804    -0.9336 H       
  37 H37            6.4005     1.8317     0.4773 H       
  38 H38            6.5046     0.0548     0.4675 H       
  39 H39            2.5618    -2.9976     0.7838 H       
  40 H40            4.1652    -3.3884     0.1170 H       
  41 H41            3.0326    -5.5848     1.2587 H       
  42 H42            6.5066     3.0940    -1.5940 H       
  43 H43            7.3144     3.1541    -3.9193 H       
  44 H44            7.8436     1.0555    -5.0934 H       
  45 H45            7.5658    -1.1033    -3.9420 H       
  46 H46            6.7625    -1.1632    -1.6152 H       
  47 H47            5.5257    -6.2145     5.8674 H       
  48 H48            3.3497    -9.3861     3.9519 H       
  49 H49            2.7646    -7.8027     2.1532 H       
  50 H50            5.8377    -9.0012     7.8640 H       
@<TRIPOS>BOND
   1    1    2 ar
   2    1    6 ar
   3    1   32 1
   4    2    3 ar
   5    2   33 1
   6    3    4 ar
   7    3   34 1
   8    4    5 ar
   9    4    7 1
  10    5    6 ar
  11    5    9 1
  12    6   35 1
  13    7    8 1
  14    7   11 1
  15    7   36 1
  16    8    9 am
  17    8   12 1
  18    9   10 2
  19   11   14 1
  20   12   13 1
  21   12   37 1
  22   12   38 1
  23   13   18 ar
  24   13   22 ar
  25   14   15 1
  26   14   39 1
  27   14   40 1
  28   15   16 2
  29   15   17 am
  30   17   23 1
  31   17   41 1
  32   18   19 ar
  33   18   42 1
  34   19   20 ar
  35   19   43 1
  36   20   21 ar
  37   20   44 1
  38   21   22 ar
  39   21   45 1
  40   22   46 1
  41   23   24 ar
  42   23   28 ar
  43   24   25 ar
  44   25   26 ar
  45   25   47 1
  46   26   27 ar
  47   26   29 1
  48   27   28 ar
  49   27   48 1
  50   28   49 1
  51   29   30 1
  52   29   31 2
  53   30   50 1

#	End of record

