#	Name: ASD05323028
#	Creating user name:	WinNT
#	Creation time:	15. 06. 2019 20:59

#	Modifying user name:	WinNT
#	Modification time:	15. 06. 2019 20:59

#	Program:	/corina/corina34_cracker 3.40 0067  02.08.2006

@<TRIPOS>MOLECULE
ASD05323028
  44   45    0    0    0
SMALL
NO_CHARGES


@<TRIPOS>ATOM
   1 C1            -0.0226     1.8187     0.0120 C.3     
   2 P2             0.0021    -0.0041     0.0020 P.3     
   3 O3             0.7808    -0.5374     1.3064 O.3     
   4 O4            -1.5084    -0.5613     0.0134 O.3     
   5 O5             0.6948    -0.4814    -1.2156 O.2     
   6 O6             1.3180     2.3134     0.0019 O.3     
   7 O7             1.4097     3.1532    -2.2006 O.3     
   8 C8             1.9682     2.2043    -1.2659 C.3     
   9 C9             3.4562     2.6005    -1.1430 C.3     
  10 C10            3.7562     3.3468    -2.4623 C.3     
  11 C11            2.4139     3.3132    -3.2261 C.3     
  12 C12            2.1093     4.5576    -5.2920 C.2     
  13 N13            1.9193     5.6973    -5.9823 N.am    
  14 C14            1.8245     6.8762    -5.3348 C.2     
  15 C15            1.9261     6.9035    -3.9230 C.2     
  16 C16            2.1163     5.7453    -3.2556 C.2     
  17 N17            2.2076     4.5700    -3.9502 N.am    
  18 O18            1.6534     7.9080    -5.9587 O.2     
  19 O19            2.1883     3.5013    -5.8890 O.2     
  20 C20            1.0601    -1.9201     1.5349 C.3     
  21 C21            1.8086    -2.0769     2.8601 C.3     
  22 C22           -1.8263    -1.9503    -0.0954 C.3     
  23 C23           -3.3450    -2.1308    -0.0507 C.3     
  24 H24           -0.5498     2.1798    -0.8710 H       
  25 H25           -0.5328     2.1703     0.9088 H       
  26 H26            1.8764     1.1900    -1.6544 H       
  27 H27            3.6065     3.2601    -0.2884 H       
  28 H28            4.0820     1.7123    -1.0559 H       
  29 H29            4.0548     4.3754    -2.2598 H       
  30 H30            4.5303     2.8276    -3.0273 H       
  31 H31            2.3905     2.4690    -3.9152 H       
  32 H32            1.8507     5.6705    -6.9495 H       
  33 H33            1.8529     7.8383    -3.3871 H       
  34 H34            2.1962     5.7466    -2.1785 H       
  35 H35            0.1245    -2.4775     1.5779 H       
  36 H36            1.6757    -2.3055     0.7221 H       
  37 H37            2.0217    -3.1316     3.0344 H       
  38 H38            2.7443    -1.5194     2.8171 H       
  39 H39            1.1930    -1.6915     3.6728 H       
  40 H40           -1.4420    -2.3381    -1.0388 H       
  41 H41           -1.3713    -2.4932     0.7330 H       
  42 H42           -3.7294    -1.7429     0.8926 H       
  43 H43           -3.8000    -1.5879    -0.8791 H       
  44 H44           -3.5875    -3.1902    -0.1338 H       
@<TRIPOS>BOND
   1    1    2 1
   2    1    6 1
   3    1   24 1
   4    1   25 1
   5    2    3 1
   6    2    4 1
   7    2    5 2
   8    3   20 1
   9    4   22 1
  10    6    8 1
  11    7    8 1
  12    7   11 1
  13    8    9 1
  14    8   26 1
  15    9   10 1
  16    9   27 1
  17    9   28 1
  18   10   11 1
  19   10   29 1
  20   10   30 1
  21   11   17 1
  22   11   31 1
  23   12   13 am
  24   12   17 am
  25   12   19 2
  26   13   14 am
  27   13   32 1
  28   14   15 1
  29   14   18 2
  30   15   16 2
  31   15   33 1
  32   16   17 1
  33   16   34 1
  34   20   21 1
  35   20   35 1
  36   20   36 1
  37   21   37 1
  38   21   38 1
  39   21   39 1
  40   22   23 1
  41   22   40 1
  42   22   41 1
  43   23   42 1
  44   23   43 1
  45   23   44 1

#	End of record

