#	Name: ASD01150712
#	Creating user name:	WinNT
#	Creation time:	15. 06. 2019 19:04

#	Modifying user name:	WinNT
#	Modification time:	15. 06. 2019 19:04

#	Program:	/corina/corina34_cracker 3.40 0067  02.08.2006

@<TRIPOS>MOLECULE
ASD01150712
  38   39    0    0    0
SMALL
NO_CHARGES


@<TRIPOS>ATOM
   1 C1            -0.0417     1.1922     0.0129 C.2     
   2 O2             0.6614     1.2329    -0.9784 O.2     
   3 C3             0.3962     0.4261     1.1987 C.ar    
   4 C4             1.5597    -0.3443     1.1456 C.ar    
   5 C5             1.9629    -1.0563     2.2560 C.ar    
   6 C6             1.2170    -1.0089     3.4206 C.ar    
   7 C7             0.0629    -0.2475     3.4802 C.ar    
   8 C8            -0.3486     0.4740     2.3790 C.ar    
   9 C9            -1.3272     1.9114     0.0342 C.ar    
  10 C10           -2.5352     1.2048    -0.0924 C.ar    
  11 C11           -3.7403     1.8952    -0.0708 C.ar    
  12 C12           -3.7485     3.2676     0.0743 C.ar    
  13 C13           -2.5587     3.9679     0.1989 C.ar    
  14 C14           -1.3536     3.3010     0.1862 C.ar    
  15 C15           -2.5842     5.4665     0.3557 C.3     
  16 C16           -4.0338     5.9557     0.3451 C.3     
  17 C17           -1.9255     5.8518     1.6817 C.3     
  18 C18           -1.8192     6.1133    -0.8007 C.3     
  19 N19           -2.5242    -0.1756    -0.2387 N.pl3   
  20 H20            2.1424    -0.3827     0.2371 H       
  21 H21            2.8625    -1.6525     2.2163 H       
  22 H22            1.5367    -1.5689     4.2870 H       
  23 H23           -0.5147    -0.2152     4.3921 H       
  24 H24           -1.2472     1.0712     2.4281 H       
  25 H25           -4.6719     1.3575    -0.1681 H       
  26 H26           -4.6882     3.7996     0.0904 H       
  27 H27           -0.4300     3.8513     0.2890 H       
  28 H28           -4.5789     5.4949     1.1690 H       
  29 H29           -4.0523     7.0397     0.4585 H       
  30 H30           -4.5031     5.6812    -0.5996 H       
  31 H31           -0.8928     5.5033     1.6893 H       
  32 H32           -1.9440     6.9358     1.7951 H       
  33 H33           -2.4705     5.3910     2.5056 H       
  34 H34           -2.2885     5.8387    -1.7455 H       
  35 H35           -1.8377     7.1972    -0.6874 H       
  36 H36           -0.7865     5.7647    -0.7932 H       
  37 H37           -1.6813    -0.6471    -0.3286 H       
  38 H38           -3.3594    -0.6687    -0.2510 H       
@<TRIPOS>BOND
   1    1    2 2
   2    1    3 1
   3    1    9 1
   4    3    4 ar
   5    3    8 ar
   6    4    5 ar
   7    4   20 1
   8    5    6 ar
   9    5   21 1
  10    6    7 ar
  11    6   22 1
  12    7    8 ar
  13    7   23 1
  14    8   24 1
  15    9   10 ar
  16    9   14 ar
  17   10   11 ar
  18   10   19 1
  19   11   12 ar
  20   11   25 1
  21   12   13 ar
  22   12   26 1
  23   13   14 ar
  24   13   15 1
  25   14   27 1
  26   15   16 1
  27   15   18 1
  28   15   17 1
  29   16   28 1
  30   16   29 1
  31   16   30 1
  32   17   31 1
  33   17   32 1
  34   17   33 1
  35   18   34 1
  36   18   35 1
  37   18   36 1
  38   19   37 1
  39   19   38 1

#	End of record

