#	Name: ASD00731045
#	Creating user name:	WinNT
#	Creation time:	15. 06. 2019 18:37

#	Modifying user name:	WinNT
#	Modification time:	15. 06. 2019 18:37

#	Program:	/corina/corina34_cracker 3.40 0067  02.08.2006

@<TRIPOS>MOLECULE
ASD00731045
 230  232    0    0    0
SMALL
NO_CHARGES


@<TRIPOS>ATOM
   1 C1            -0.7380     0.4645    -1.0916 C.2     
   2 O2            -1.1488    -0.0746    -2.0974 O.2     
   3 N3             1.3804     0.5982    -2.2678 N.am    
   4 C4             0.6966     0.9192    -1.0126 C.3     
   5 C5             0.7405     2.4307    -0.7800 C.3     
   6 C6             2.1923     2.9116    -0.8240 C.3     
   7 O7            -0.0114     3.0916    -1.7998 O.3     
   8 C8            -3.7407     1.5135    -0.7059 C.2     
   9 O9            -3.1490     2.5394    -0.9676 O.2     
  10 N10           -1.5660     0.6619    -0.0467 N.am    
  11 C11           -2.9871     0.3261    -0.1645 C.3     
  12 C12           -3.5398    -0.0436     1.2134 C.3     
  13 C13           -2.8920    -1.3185     1.6889 C.2     
  14 O14           -2.0112    -1.8281     1.0375 O.2     
  15 O15           -3.2936    -1.8880     2.8362 O.3     
  16 C16           -7.2461     2.5102    -0.9926 C.2     
  17 O17           -7.6241     1.5807    -0.3115 O.2     
  18 N18           -5.0722     1.4356    -0.8994 N.am    
  19 C19           -5.8048     2.5899    -1.4257 C.3     
  20 C20           -5.7306     2.5875    -2.9539 C.3     
  21 C21          -10.4046     4.1089    -1.8532 C.2     
  22 O22           -9.9499     4.8560    -2.6935 O.2     
  23 N23           -8.1149     3.4719    -1.3623 N.am    
  24 C24           -9.4881     3.4539    -0.8521 C.3     
  25 C25           -9.5502     4.2177     0.4721 C.3     
  26 C26          -10.9451     4.0676     1.0826 C.3     
  27 C27          -11.1735     2.6078     1.4797 C.3     
  28 C28          -11.0576     4.9570     2.3224 C.3     
  29 C29          -14.0046     4.5454    -2.3135 C.2     
  30 O30          -14.2467     4.2205    -1.1704 O.2     
  31 N31          -11.7294     3.8645    -1.8147 N.am    
  32 C32          -12.6052     4.4085    -2.8556 C.3     
  33 C33          -12.6146     3.4640    -4.0592 C.3     
  34 C34          -11.2192     3.4221    -4.6854 C.3     
  35 C35          -11.2286     2.4776    -5.8891 C.3     
  36 N36           -9.8926     2.4374    -6.4887 N.pl3   
  37 C37           -9.6573     1.6505    -7.5912 C.2     
  38 N38          -10.6229     0.9402    -8.1030 N.2     
  39 N39           -8.4035     1.6128    -8.1540 N.pl3   
  40 C40          -17.3341     5.1163    -3.7107 C.2     
  41 O41          -16.9395     4.9854    -4.8500 O.2     
  42 N42          -14.9873     5.0289    -3.0991 N.am    
  43 C43          -16.3478     5.1619    -2.5722 C.3     
  44 C44          -16.4810     6.4961    -1.8352 C.3     
  45 C45          -15.5695     6.4932    -0.6064 C.3     
  46 C46          -15.7027     7.8273     0.1306 C.3     
  47 C47          -14.7912     7.8244     1.3595 C.3     
  48 N48          -14.9191     9.1054     2.0671 N.3     
  49 C49          -20.8760     5.8958    -4.1696 C.2     
  50 O50          -20.9659     6.3963    -3.0685 O.2     
  51 N51          -18.6547     5.2208    -3.4627 N.am    
  52 C52          -19.6136     5.1764    -4.5695 C.3     
  53 C53          -19.9406     3.7194    -4.9028 C.3     
  54 C54          -18.7030     3.0324    -5.4197 C.2     
  55 C55          -18.3548     2.8765    -6.7068 C.2     
  56 N56          -17.1663     2.2037    -6.7905 N.pl3   
  57 C57          -16.7089     1.9026    -5.5271 C.ar    
  58 C58          -15.5799     1.2461    -5.0487 C.ar    
  59 C59          -15.3978     1.0991    -3.6908 C.ar    
  60 C60          -16.3304     1.5999    -2.7932 C.ar    
  61 C61          -17.4470     2.2478    -3.2415 C.ar    
  62 C62          -17.6484     2.4135    -4.6129 C.ar    
  63 C63          -24.2902     6.1497    -5.4509 C.2     
  64 O64          -24.1082     5.2723    -6.2683 O.2     
  65 N65          -21.9051     5.9829    -5.0355 N.am    
  66 C66          -23.1323     6.6823    -4.6467 C.3     
  67 C67          -22.9721     8.1802    -4.9138 C.3     
  68 C68          -21.8787     8.7461    -4.0054 C.3     
  69 S69          -21.6887    10.5221    -4.3220 S.3     
  70 C70          -20.3716    11.0032    -3.1711 C.3     
  71 C71          -27.7313     7.1804    -6.1283 C.2     
  72 O72          -27.5746     8.2553    -5.5889 O.2     
  73 N73          -25.5279     6.6483    -5.2618 N.am    
  74 C74          -26.6536     6.1306    -6.0435 C.3     
  75 C75          -27.2132     4.8789    -5.3645 C.3     
  76 C76          -26.1748     3.7871    -5.3895 C.ar    
  77 C77          -25.2730     3.6669    -4.3486 C.ar    
  78 C78          -24.3205     2.6654    -4.3716 C.ar    
  79 C79          -24.2699     1.7838    -5.4351 C.ar    
  80 C80          -25.1723     1.9034    -6.4755 C.ar    
  81 C81          -26.1276     2.9022    -6.4505 C.ar    
  82 C82          -30.7947     7.8644    -5.6637 C.2     
  83 O83          -30.5682     7.0388    -4.8111 O.2     
  84 N84          -28.8694     6.9249    -6.8036 N.am    
  85 C85          -29.9171     7.9455    -6.8861 C.3     
  86 C86          -30.7635     7.7076    -8.1383 C.3     
  87 C87          -31.7774     8.8430    -8.2919 C.3     
  88 C88          -32.5388     8.6723    -9.6080 C.3     
  89 C89          -31.5051     6.3758    -8.0070 C.3     
  90 O90          -31.8280     8.7094    -5.5221 O.3     
  91 C91            2.7178     0.4314    -2.2831 C.2     
  92 O92            3.3551     0.5471    -1.2577 O.2     
  93 C93           18.9349    -3.1927   -10.9466 C.3     
  94 C94           18.2207    -2.8575    -9.6357 C.3     
  95 C95           16.7187    -2.7222    -9.8934 C.3     
  96 C96           16.0045    -2.3869    -8.5825 C.3     
  97 C97           14.5024    -2.2516    -8.8402 C.3     
  98 C98           13.7883    -1.9164    -7.5293 C.3     
  99 C99           12.2862    -1.7810    -7.7870 C.3     
 100 C100          11.5720    -1.4458    -6.4761 C.3     
 101 C101          10.0700    -1.3105    -6.7338 C.3     
 102 C102           9.3558    -0.9752    -5.4229 C.3     
 103 C103           7.8537    -0.8399    -5.6806 C.3     
 104 C104           7.1395    -0.5047    -4.3697 C.3     
 105 C105           5.6375    -0.3693    -4.6274 C.3     
 106 C106           4.9233    -0.0341    -3.3166 C.3     
 107 C107           3.4212     0.1012    -3.5743 C.3     
 108 H108           0.8707     0.5056    -3.0879 H       
 109 H109           1.1942     0.4100    -0.1872 H       
 110 H110           0.3109     2.6609     0.1950 H       
 111 H111           2.6218     2.6814    -1.7990 H       
 112 H112           2.2235     3.9885    -0.6583 H       
 113 H113           2.7657     2.4075    -0.0461 H       
 114 H114           0.3153     2.9312    -2.6957 H       
 115 H115          -1.2210     1.0264     0.7834 H       
 116 H116          -3.1057    -0.5193    -0.8423 H       
 117 H117          -3.3236     0.7588     1.9188 H       
 118 H118          -4.6182    -0.1873     1.1458 H       
 119 H119          -2.8485    -2.7049     3.1002 H       
 120 H120          -5.5455     0.6151    -0.6901 H       
 121 H121          -5.3603     3.5081    -1.0418 H       
 122 H122          -6.2756     3.4464    -3.3455 H       
 123 H123          -4.6881     2.6452    -3.2671 H       
 124 H124          -6.1751     1.6693    -3.3378 H       
 125 H125          -7.8311     4.1759    -1.9662 H       
 126 H126          -9.8027     2.4227    -0.6919 H       
 127 H127          -8.8072     3.8137     1.1598 H       
 128 H128          -9.3436     5.2729     0.2930 H       
 129 H129         -11.6959     4.3669     0.3513 H       
 130 H130         -12.1276     2.5175     1.9990 H       
 131 H131         -11.1867     1.9856     0.5848 H       
 132 H132         -10.3690     2.2802     2.1382 H       
 133 H133         -10.8949     5.9970     2.0395 H       
 134 H134         -12.0513     4.8500     2.7573 H       
 135 H135         -10.3068     4.6576     3.0537 H       
 136 H136         -12.1031     3.3284    -1.0979 H       
 137 H137         -12.2379     5.3872    -3.1645 H       
 138 H138         -12.8968     2.4629    -3.7332 H       
 139 H139         -13.3331     3.8221    -4.7964 H       
 140 H140         -10.9370     4.4232    -5.0114 H       
 141 H141         -10.5007     3.0640    -3.9482 H       
 142 H142         -11.5108     1.4765    -5.5631 H       
 143 H143         -11.9471     2.8357    -6.6263 H       
 144 H144          -9.1739     2.9660    -6.1079 H       
 145 H145         -10.4570     0.3850    -8.8809 H       
 146 H146          -7.6848     2.1414    -7.7731 H       
 147 H147          -8.2375     1.0576    -8.9319 H       
 148 H148         -14.7937     5.2887    -4.0134 H       
 149 H149         -16.5516     4.3435    -1.8818 H       
 150 H150         -16.1912     7.3093    -2.5006 H       
 151 H151         -17.5151     6.6355    -1.5202 H       
 152 H152         -15.8593     5.6800     0.0591 H       
 153 H153         -14.5353     6.3538    -0.9214 H       
 154 H154         -15.4129     8.6405    -0.5348 H       
 155 H155         -16.7368     7.9667     0.4457 H       
 156 H156         -15.0810     7.0112     2.0249 H       
 157 H157         -13.7571     7.6851     1.0444 H       
 158 H158         -15.8805     9.2882     2.3131 H       
 159 H159         -14.3264     9.1284     2.8833 H       
 160 H160         -18.9703     5.3254    -2.5515 H       
 161 H161         -19.1809     5.6610    -5.4447 H       
 162 H162         -20.2901     3.2108    -4.0043 H       
 163 H163         -20.7193     3.6870    -5.6648 H       
 164 H164         -18.9282     3.2295    -7.5512 H       
 165 H165         -16.7134     1.9733    -7.6167 H       
 166 H166         -14.8486     0.8526    -5.7392 H       
 167 H167         -14.5206     0.5888    -3.3213 H       
 168 H168         -16.1726     1.4763    -1.7320 H       
 169 H169         -18.1686     2.6346    -2.5372 H       
 170 H170         -21.8332     5.5826    -5.9161 H       
 171 H171         -23.3220     6.5206    -3.5856 H       
 172 H172         -22.6948     8.3358    -5.9564 H       
 173 H173         -23.9141     8.6887    -4.7085 H       
 174 H174         -22.1559     8.5905    -2.9628 H       
 175 H175         -20.9366     8.2377    -4.2106 H       
 176 H176         -20.6866    10.7912    -2.1494 H       
 177 H177         -19.4673    10.4383    -3.3973 H       
 178 H178         -20.1697    12.0693    -3.2752 H       
 179 H179         -25.6735     7.3500    -4.6080 H       
 180 H180         -26.3128     5.8777    -7.0475 H       
 181 H181         -27.4717     5.1108    -4.3313 H       
 182 H182         -28.1044     4.5449    -5.8959 H       
 183 H183         -25.3125     4.3557    -3.5177 H       
 184 H184         -23.6155     2.5720    -3.5587 H       
 185 H185         -23.5253     1.0018    -5.4533 H       
 186 H186         -25.1326     1.2148    -7.3065 H       
 187 H187         -26.8349     2.9934    -7.2615 H       
 188 H188         -28.9947     6.0652    -7.2351 H       
 189 H189         -29.4589     8.9331    -6.9395 H       
 190 H190         -30.1157     7.6779    -9.0144 H       
 191 H191         -32.4805     8.8173    -7.4594 H       
 192 H192         -31.2542     9.7992    -8.2962 H       
 193 H193         -33.2611     9.4812    -9.7174 H       
 194 H194         -31.8356     8.6980   -10.4405 H       
 195 H195         -33.0620     7.7161    -9.6037 H       
 196 H196         -32.1529     6.4055    -7.1309 H       
 197 H197         -32.1081     6.2063    -8.8991 H       
 198 H198         -30.7828     5.5669    -7.8976 H       
 199 H199         -32.3624     8.6190    -4.7212 H       
 200 H200          20.0050    -3.2892   -10.7630 H       
 201 H201          18.5479    -4.1322   -11.3413 H       
 202 H202          18.7607    -2.3957   -11.6694 H       
 203 H203          18.3950    -3.6546    -8.9129 H       
 204 H204          18.6078    -1.9181    -9.2410 H       
 205 H205          16.5444    -1.9251   -10.6163 H       
 206 H206          16.3317    -3.6616   -10.2881 H       
 207 H207          16.1788    -3.1840    -7.8597 H       
 208 H208          16.3915    -1.4475    -8.1879 H       
 209 H209          14.3282    -1.4546    -9.5631 H       
 210 H210          14.1154    -3.1910    -9.2349 H       
 211 H211          13.9625    -2.7134    -6.8065 H       
 212 H212          14.1753    -0.9769    -7.1347 H       
 213 H213          12.1119    -0.9840    -8.5099 H       
 214 H214          11.8992    -2.7205    -8.1817 H       
 215 H215          11.7463    -2.2428    -5.7533 H       
 216 H216          11.9590    -0.5064    -6.0815 H       
 217 H217           9.8957    -0.5134    -7.4567 H       
 218 H218           9.6829    -2.2499    -7.1285 H       
 219 H219           9.5300    -1.7723    -4.7001 H       
 220 H220           9.7428    -0.0358    -5.0283 H       
 221 H221           7.6794    -0.0429    -6.4035 H       
 222 H222           7.4667    -1.7793    -6.0753 H       
 223 H223           7.3138    -1.3017    -3.6469 H       
 224 H224           7.5265     0.4348    -3.9751 H       
 225 H225           5.4632     0.4277    -5.3503 H       
 226 H226           5.2504    -1.3088    -5.0221 H       
 227 H227           5.0975    -0.8311    -2.5937 H       
 228 H228           5.3103     0.9053    -2.9219 H       
 229 H229           3.0342    -0.8382    -3.9689 H       
 230 H230           3.2470     0.8983    -4.2971 H       
@<TRIPOS>BOND
   1    1    2 2
   2    1    4 1
   3    1   10 am
   4    3   91 am
   5    3    4 1
   6    3  108 1
   7    4    5 1
   8    4  109 1
   9    5    6 1
  10    5    7 1
  11    5  110 1
  12    6  111 1
  13    6  112 1
  14    6  113 1
  15    7  114 1
  16    8    9 2
  17    8   11 1
  18    8   18 am
  19   10   11 1
  20   10  115 1
  21   11   12 1
  22   11  116 1
  23   12   13 1
  24   12  117 1
  25   12  118 1
  26   13   14 2
  27   13   15 1
  28   15  119 1
  29   16   17 2
  30   16   19 1
  31   16   23 am
  32   18   19 1
  33   18  120 1
  34   19   20 1
  35   19  121 1
  36   20  122 1
  37   20  123 1
  38   20  124 1
  39   21   22 2
  40   21   24 1
  41   21   31 am
  42   23   24 1
  43   23  125 1
  44   24   25 1
  45   24  126 1
  46   25   26 1
  47   25  127 1
  48   25  128 1
  49   26   27 1
  50   26   28 1
  51   26  129 1
  52   27  130 1
  53   27  131 1
  54   27  132 1
  55   28  133 1
  56   28  134 1
  57   28  135 1
  58   29   30 2
  59   29   32 1
  60   29   42 am
  61   31   32 1
  62   31  136 1
  63   32   33 1
  64   32  137 1
  65   33   34 1
  66   33  138 1
  67   33  139 1
  68   34   35 1
  69   34  140 1
  70   34  141 1
  71   35   36 1
  72   35  142 1
  73   35  143 1
  74   36   37 1
  75   36  144 1
  76   37   38 2
  77   37   39 1
  78   38  145 1
  79   39  146 1
  80   39  147 1
  81   40   41 2
  82   40   43 1
  83   40   51 am
  84   42   43 1
  85   42  148 1
  86   43   44 1
  87   43  149 1
  88   44   45 1
  89   44  150 1
  90   44  151 1
  91   45   46 1
  92   45  152 1
  93   45  153 1
  94   46   47 1
  95   46  154 1
  96   46  155 1
  97   47   48 1
  98   47  156 1
  99   47  157 1
 100   48  158 1
 101   48  159 1
 102   49   50 2
 103   49   52 1
 104   49   65 am
 105   51   52 1
 106   51  160 1
 107   52   53 1
 108   52  161 1
 109   53   54 1
 110   53  162 1
 111   53  163 1
 112   54   55 2
 113   54   62 1
 114   55   56 1
 115   55  164 1
 116   56   57 1
 117   56  165 1
 118   57   58 ar
 119   57   62 ar
 120   58   59 ar
 121   58  166 1
 122   59   60 ar
 123   59  167 1
 124   60   61 ar
 125   60  168 1
 126   61   62 ar
 127   61  169 1
 128   63   64 2
 129   63   66 1
 130   63   73 am
 131   65   66 1
 132   65  170 1
 133   66   67 1
 134   66  171 1
 135   67   68 1
 136   67  172 1
 137   67  173 1
 138   68   69 1
 139   68  174 1
 140   68  175 1
 141   69   70 1
 142   70  176 1
 143   70  177 1
 144   70  178 1
 145   71   72 2
 146   71   74 1
 147   71   84 am
 148   73   74 1
 149   73  179 1
 150   74   75 1
 151   74  180 1
 152   75   76 1
 153   75  181 1
 154   75  182 1
 155   76   77 ar
 156   76   81 ar
 157   77   78 ar
 158   77  183 1
 159   78   79 ar
 160   78  184 1
 161   79   80 ar
 162   79  185 1
 163   80   81 ar
 164   80  186 1
 165   81  187 1
 166   82   83 2
 167   82   85 1
 168   82   90 1
 169   84   85 1
 170   84  188 1
 171   85   86 1
 172   85  189 1
 173   86   87 1
 174   86   89 1
 175   86  190 1
 176   87   88 1
 177   87  191 1
 178   87  192 1
 179   88  193 1
 180   88  194 1
 181   88  195 1
 182   89  196 1
 183   89  197 1
 184   89  198 1
 185   90  199 1
 186   91   92 2
 187   91  107 1
 188   93   94 1
 189   93  200 1
 190   93  201 1
 191   93  202 1
 192   94   95 1
 193   94  203 1
 194   94  204 1
 195   95   96 1
 196   95  205 1
 197   95  206 1
 198   96   97 1
 199   96  207 1
 200   96  208 1
 201   97   98 1
 202   97  209 1
 203   97  210 1
 204   98   99 1
 205   98  211 1
 206   98  212 1
 207   99  100 1
 208   99  213 1
 209   99  214 1
 210  100  101 1
 211  100  215 1
 212  100  216 1
 213  101  102 1
 214  101  217 1
 215  101  218 1
 216  102  103 1
 217  102  219 1
 218  102  220 1
 219  103  104 1
 220  103  221 1
 221  103  222 1
 222  104  105 1
 223  104  223 1
 224  104  224 1
 225  105  106 1
 226  105  225 1
 227  105  226 1
 228  106  107 1
 229  106  227 1
 230  106  228 1
 231  107  229 1
 232  107  230 1

#	End of record

