#	Name: ASD00060005
#	Creating user name:	WinNT
#	Creation time:	15. 06. 2019 18:29

#	Modifying user name:	WinNT
#	Modification time:	15. 06. 2019 18:29

#	Program:	/corina/corina34_cracker 3.40 0067  02.08.2006

@<TRIPOS>MOLECULE
ASD00060005
  38   39    0    0    0
SMALL
NO_CHARGES


@<TRIPOS>ATOM
   1 C1            -0.0169     1.3943     0.0097 C.ar    
   2 C2             0.0021    -0.0041     0.0020 C.ar    
   3 C3            -1.1847    -0.7060     0.0101 C.ar    
   4 C4            -2.3925    -0.0303     0.0252 C.ar    
   5 C5            -2.4196     1.3534     0.0329 C.ar    
   6 C6            -1.2414     2.0697     0.0309 C.ar    
   7 C7             1.2453     2.1512     0.0017 C.2     
   8 C8             1.6191     3.0054     1.1856 C.3     
   9 C9             0.9636     4.3811     1.0492 C.3     
  10 C10            1.3375     5.2353     2.2331 C.ar    
  11 C11            2.0676     2.0804    -1.0655 C.2     
  12 C12            1.7048     1.2515    -2.2143 C.2     
  13 O13            0.6618     0.6260    -2.2077 O.2     
  14 O14            2.5271     1.1807    -3.2815 O.3     
  15 C15            2.4701     6.0264     2.1845 C.ar    
  16 C16            2.8130     6.8099     3.2705 C.ar    
  17 C17            2.0231     6.8027     4.4050 C.ar    
  18 C18            0.8901     6.0123     4.4532 C.ar    
  19 C19            0.5447     5.2321     3.3656 C.ar    
  20 C20            2.3976     7.6561     5.5893 C.3     
  21 F21            1.7994     8.9146     5.4649 F       
  22 F22            1.9529     7.0426     6.7653 F       
  23 F23            3.7880     7.8033     5.6370 F       
  24 H24            0.9438    -0.5327    -0.0105 H       
  25 H25           -1.1717    -1.7859     0.0041 H       
  26 H26           -3.3187    -0.5858     0.0308 H       
  27 H27           -3.3661     1.8735     0.0444 H       
  28 H28           -1.2641     3.1494     0.0368 H       
  29 H29            1.2733     2.5275     2.1022 H       
  30 H30            2.7023     3.1211     1.2226 H       
  31 H31            1.3094     4.8591     0.1327 H       
  32 H32           -0.1196     4.2654     1.0123 H       
  33 H33            2.9938     2.6358    -1.0714 H       
  34 H34            2.2029     0.6086    -3.9905 H       
  35 H35            3.0872     6.0320     1.2982 H       
  36 H36            3.6983     7.4274     3.2328 H       
  37 H37            0.2731     6.0064     5.3397 H       
  38 H38           -0.3405     4.6146     3.4033 H       
@<TRIPOS>BOND
   1    1    2 ar
   2    1    7 1
   3    1    6 ar
   4    2    3 ar
   5    2   24 1
   6    3    4 ar
   7    3   25 1
   8    4    5 ar
   9    4   26 1
  10    5    6 ar
  11    5   27 1
  12    6   28 1
  13    7    8 1
  14    7   11 2
  15    8    9 1
  16    8   29 1
  17    8   30 1
  18    9   10 1
  19    9   31 1
  20    9   32 1
  21   10   15 ar
  22   10   19 ar
  23   11   12 1
  24   11   33 1
  25   12   13 2
  26   12   14 1
  27   14   34 1
  28   15   16 ar
  29   15   35 1
  30   16   17 ar
  31   16   36 1
  32   17   18 ar
  33   17   20 1
  34   18   19 ar
  35   18   37 1
  36   19   38 1
  37   20   21 1
  38   20   22 1
  39   20   23 1

#	End of record

