#	Name: ASD01811553
#	Creating user name:	WinNT
#	Creation time:	15. 06. 2019 19:26

#	Modifying user name:	WinNT
#	Modification time:	15. 06. 2019 19:26

#	Program:	/corina/corina34_cracker 3.40 0067  02.08.2006

@<TRIPOS>MOLECULE
ASD01811553
  68   72    0    0    0
SMALL
NO_CHARGES


@<TRIPOS>ATOM
   1 C1            -7.6552     2.4763    -4.1282 C.1     
   2 C2            -6.6451     3.2282    -3.4463 C.ar    
   3 C3            -5.4812     2.5975    -3.0022 C.ar    
   4 C4            -4.5122     3.3279    -2.3460 C.ar    
   5 C5            -4.6919     4.6822    -2.1270 C.ar    
   6 C6            -5.8430     5.3134    -2.5639 C.ar    
   7 C7            -6.8171     4.5965    -3.2275 C.ar    
   8 N8            -8.4565     1.8799    -4.6692 N.1     
   9 N9            -2.5320     7.8386    -0.3125 N.am    
  10 C10           -2.0131     7.3680    -1.6040 C.3     
  11 C11           -3.1172     6.5878    -2.3243 C.3     
  12 C12           -3.6291     5.4733    -1.4089 C.3     
  13 C13           -4.2214     6.0865    -0.1379 C.3     
  14 C14           -3.1298     6.8611     0.6072 C.3     
  15 C15           -2.4561     9.1414     0.0245 C.2     
  16 C16           -3.0589     9.6142     1.2892 C.ar    
  17 C17           -3.9986    10.6476     1.2735 C.ar    
  18 C18           -4.5622    11.0900     2.4534 C.ar    
  19 C19           -4.2016    10.5150     3.6563 C.ar    
  20 C20           -3.2636     9.4814     3.6862 C.ar    
  21 C21           -2.6952     9.0261     2.4987 C.ar    
  22 O22           -1.8922     9.9276    -0.7112 O.2     
  23 C23           -4.8218    11.0048     4.9395 C.3     
  24 C24           -4.3977    11.2811    -0.0344 C.3     
  25 C25           -0.9829     6.6717     7.2214 C.3     
  26 C26           -1.8719     7.6370     6.4812 C.2     
  27 C27           -2.8226     8.3943     7.0797 C.2     
  28 C28           -3.0969     8.3465     8.5637 C.3     
  29 C29           -2.4430     7.0754     9.1228 C.3     
  30 N30           -1.0515     6.9894     8.6583 N.3     
  31 C31           -2.8784     8.8672     4.9756 C.2     
  32 N32           -1.9013     7.9274     5.1534 N.pl3   
  33 N33           -3.4185     9.1329     6.1476 N.2     
  34 C34           -2.4674     7.1206    10.6519 C.3     
  35 C35           -0.2915     6.0130     9.4502 C.3     
  36 H36           -5.3400     1.5403    -3.1719 H       
  37 H37           -3.6115     2.8413    -2.0020 H       
  38 H38           -5.9770     6.3707    -2.3894 H       
  39 H39           -7.7130     5.0914    -3.5723 H       
  40 H40           -1.7141     8.2226    -2.2109 H       
  41 H41           -1.1547     6.7172    -1.4376 H       
  42 H42           -3.9376     7.2619    -2.5706 H       
  43 H43           -2.7168     6.1517    -3.2395 H       
  44 H44           -2.8031     4.8138    -1.1428 H       
  45 H45           -5.0314     6.7653    -0.4048 H       
  46 H46           -4.6069     5.2936     0.5030 H       
  47 H47           -2.3625     6.1689     0.9539 H       
  48 H48           -3.5676     7.3812     1.4592 H       
  49 H49           -5.2880    11.8895     2.4359 H       
  50 H50           -1.9724     8.2238     2.5160 H       
  51 H51           -5.6668    10.3679     5.2009 H       
  52 H52           -4.0803    10.9705     5.7376 H       
  53 H53           -5.1668    12.0304     4.8080 H       
  54 H54           -5.1885    10.6911    -0.4976 H       
  55 H55           -4.7587    12.2934     0.1475 H       
  56 H56           -3.5345    11.3172    -0.6990 H       
  57 H57           -1.3282     5.6516     7.0537 H       
  58 H58            0.0440     6.7750     6.8709 H       
  59 H59           -2.6684     9.2248     9.0465 H       
  60 H60           -4.1722     8.3160     8.7393 H       
  61 H61           -2.9952     6.2014     8.7775 H       
  62 H62           -1.3373     7.5423     4.4646 H       
  63 H63           -3.4995     7.1806    10.9972 H       
  64 H64           -2.0031     6.2182    11.0496 H       
  65 H65           -1.9169     7.9953    10.9984 H       
  66 H66            0.7371     5.9762     9.0915 H       
  67 H67           -0.3003     6.3101    10.4989 H       
  68 H68           -0.7475     5.0283     9.3477 H       
@<TRIPOS>BOND
   1    1    2 1
   2    1    8 3
   3    2    3 ar
   4    2    7 ar
   5    3    4 ar
   6    3   36 1
   7    4    5 ar
   8    4   37 1
   9    5    6 ar
  10    5   12 1
  11    6    7 ar
  12    6   38 1
  13    7   39 1
  14    9   10 1
  15    9   14 1
  16    9   15 am
  17   10   11 1
  18   10   40 1
  19   10   41 1
  20   11   12 1
  21   11   42 1
  22   11   43 1
  23   12   13 1
  24   12   44 1
  25   13   14 1
  26   13   45 1
  27   13   46 1
  28   14   47 1
  29   14   48 1
  30   15   16 1
  31   15   22 2
  32   16   17 ar
  33   16   21 ar
  34   17   18 ar
  35   17   24 1
  36   18   19 ar
  37   18   49 1
  38   19   20 ar
  39   19   23 1
  40   20   21 ar
  41   20   31 1
  42   21   50 1
  43   23   51 1
  44   23   52 1
  45   23   53 1
  46   24   54 1
  47   24   55 1
  48   24   56 1
  49   25   26 1
  50   25   30 1
  51   25   57 1
  52   25   58 1
  53   26   27 2
  54   26   32 1
  55   27   28 1
  56   27   33 1
  57   28   29 1
  58   28   59 1
  59   28   60 1
  60   29   30 1
  61   29   34 1
  62   29   61 1
  63   30   35 1
  64   31   32 1
  65   31   33 2
  66   32   62 1
  67   34   63 1
  68   34   64 1
  69   34   65 1
  70   35   66 1
  71   35   67 1
  72   35   68 1

#	End of record

