#	Name: ASD01912634
#	Creating user name:	WinNT
#	Creation time:	15. 06. 2019 20:00

#	Modifying user name:	WinNT
#	Modification time:	15. 06. 2019 20:00

#	Program:	/corina/corina34_cracker 3.40 0067  02.08.2006

@<TRIPOS>MOLECULE
ASD01912634
  39   42    0    0    0
SMALL
NO_CHARGES


@<TRIPOS>ATOM
   1 C1            -0.0265     1.3420     0.2541 C.2     
   2 N2             0.0030    -0.0019    -0.0159 N.pl3   
   3 C3            -1.1910    -0.6641    -0.2593 C.2     
   4 C4            -2.3522    -0.0228    -0.2357 C.2     
   5 N5            -2.4358     1.3306     0.0307 N.am    
   6 C6            -1.3130     2.0396     0.2839 C.2     
   7 C7             1.2830     1.7376     0.4535 C.2     
   8 C8             2.0429     0.5809     0.2880 C.2     
   9 N9             1.2236    -0.4064     0.0132 N.2     
  10 O10           -1.3696     3.2329     0.5210 O.2     
  11 C11           -3.6833     1.9661     0.0443 C.ar    
  12 C12            3.5421     0.4817     0.4043 C.3     
  13 O13            4.0820     1.7679     0.7144 O.3     
  14 C14            5.4310     1.8534     0.8545 C.ar    
  15 C15            6.0226     3.0717     1.1555 C.ar    
  16 C16            7.3941     3.1559     1.2973 C.ar    
  17 C17            8.1772     2.0274     1.1396 C.ar    
  18 C18            7.5902     0.8121     0.8392 C.ar    
  19 C19            6.2185     0.7214     0.7024 C.ar    
  20 C20           -3.9979     2.9009    -0.9331 C.ar    
  21 C21           -5.2293     3.5271    -0.9192 C.ar    
  22 C22           -6.1503     3.2240     0.0684 C.ar    
  23 C23           -5.8390     2.2909     1.0466 C.ar    
  24 C24           -4.6098     1.6578     1.0321 C.ar    
  25 F25           -7.3536     3.8380     0.0802 F       
  26 F26           -6.7388     1.9969     2.0105 F       
  27 H27           -1.1751    -1.7227    -0.4726 H       
  28 H28           -3.2596    -0.5751    -0.4310 H       
  29 H29            1.6404     2.7296     0.6873 H       
  30 H30            3.7994    -0.2210     1.1969 H       
  31 H31            3.9575     0.1315    -0.5406 H       
  32 H32            5.4113     3.9535     1.2784 H       
  33 H33            7.8551     4.1042     1.5313 H       
  34 H34            9.2493     2.0953     1.2510 H       
  35 H35            8.2041    -0.0678     0.7158 H       
  36 H36            5.7604    -0.2281     0.4678 H       
  37 H37           -3.2798     3.1388    -1.7039 H       
  38 H38           -5.4734     4.2541    -1.6796 H       
  39 H39           -4.3669     0.9312     1.7933 H       
@<TRIPOS>BOND
   1    1    2 1
   2    1    7 2
   3    1    6 1
   4    2    3 1
   5    2    9 1
   6    3    4 2
   7    3   27 1
   8    4    5 1
   9    4   28 1
  10    5    6 am
  11    5   11 1
  12    6   10 2
  13    7    8 1
  14    7   29 1
  15    8    9 2
  16    8   12 1
  17   11   20 ar
  18   11   24 ar
  19   12   13 1
  20   12   30 1
  21   12   31 1
  22   13   14 1
  23   14   15 ar
  24   14   19 ar
  25   15   16 ar
  26   15   32 1
  27   16   17 ar
  28   16   33 1
  29   17   18 ar
  30   17   34 1
  31   18   19 ar
  32   18   35 1
  33   19   36 1
  34   20   21 ar
  35   20   37 1
  36   21   22 ar
  37   21   38 1
  38   22   23 ar
  39   22   25 1
  40   23   24 ar
  41   23   26 1
  42   24   39 1

#	End of record

