#	Name: ASD00311449
#	Creating user name:	WinNT
#	Creation time:	15. 06. 2019 18:34

#	Modifying user name:	WinNT
#	Modification time:	15. 06. 2019 18:34

#	Program:	/corina/corina34_cracker 3.40 0067  02.08.2006

@<TRIPOS>MOLECULE
ASD00311449
  46   50    0    0    0
SMALL
NO_CHARGES


@<TRIPOS>ATOM
   1 C1            -0.0167     1.3777     0.0096 C.2     
   2 C2             0.0021    -0.0041     0.0020 C.2     
   3 C3             1.2588    -0.6767    -0.0131 C.2     
   4 C4             2.4316     0.0672    -0.0199 C.2     
   5 C5             2.3574     1.4751    -0.0117 C.2     
   6 N6             1.1648     2.0903     0.0022 N.am    
   7 C7            -1.3432    -0.5752     0.0118 C.2     
   8 C8            -2.3228     0.3262     0.0260 C.2     
   9 S9            -1.6793     1.9562     0.0358 S.3     
  10 O10            3.3823     2.1373    -0.0175 O.2     
  11 C11            3.7477    -0.6120    -0.0352 C.ar    
  12 C12            4.5938    -0.4746    -1.1354 C.ar    
  13 C13            5.8187    -1.1099    -1.1437 C.ar    
  14 C14            6.2078    -1.8823    -0.0639 C.ar    
  15 C15            5.3729    -2.0224     1.0303 C.ar    
  16 C16            4.1483    -1.3870     1.0530 C.ar    
  17 O17            1.3087    -2.0292    -0.0204 O.3     
  18 C18           -2.0690    -4.7663    -0.0070 C.ar    
  19 C19           -2.7059    -3.9526     0.9299 C.ar    
  20 C20           -2.4709    -2.5956     0.9366 C.ar    
  21 C21           -1.5956    -2.0347     0.0056 C.ar    
  22 C22           -0.9586    -2.8492    -0.9316 C.ar    
  23 C23           -1.1938    -4.2061    -0.9374 C.ar    
  24 C24           -2.3181    -6.2280    -0.0102 C.ar    
  25 C25           -2.6572    -6.8787    -1.1980 C.ar    
  26 C26           -2.8880    -8.2415    -1.1935 C.ar    
  27 C27           -2.7838    -8.9588    -0.0155 C.ar    
  28 C28           -2.4486    -8.3182     1.1637 C.ar    
  29 C29           -2.2091    -6.9589     1.1712 C.ar    
  30 F30           -2.7599    -6.1781    -2.3486 F       
  31 H31            1.1326     3.0597     0.0073 H       
  32 H32           -3.3754     0.0846     0.0347 H       
  33 H33            4.2908     0.1275    -1.9792 H       
  34 H34            6.4748    -1.0043    -1.9950 H       
  35 H35            7.1671    -2.3782    -0.0753 H       
  36 H36            5.6820    -2.6270     1.8701 H       
  37 H37            3.4994    -1.4932     1.9098 H       
  38 H38            2.2060    -2.3896    -0.0307 H       
  39 H39           -3.3835    -4.3867     1.6502 H       
  40 H40           -2.9646    -1.9655     1.6615 H       
  41 H41           -0.2812    -2.4154    -1.6523 H       
  42 H42           -0.7008    -4.8364    -1.6626 H       
  43 H43           -3.1504    -8.7469    -2.1112 H       
  44 H44           -2.9653   -10.0234    -0.0164 H       
  45 H45           -2.3692    -8.8841     2.0802 H       
  46 H46           -1.9425    -6.4617     2.0921 H       
@<TRIPOS>BOND
   1    1    2 2
   2    1    6 1
   3    1    9 1
   4    2    3 1
   5    2    7 1
   6    3    4 2
   7    3   17 1
   8    4    5 1
   9    4   11 1
  10    5    6 am
  11    5   10 2
  12    6   31 1
  13    7    8 2
  14    7   21 1
  15    8    9 1
  16    8   32 1
  17   11   12 ar
  18   11   16 ar
  19   12   13 ar
  20   12   33 1
  21   13   14 ar
  22   13   34 1
  23   14   15 ar
  24   14   35 1
  25   15   16 ar
  26   15   36 1
  27   16   37 1
  28   17   38 1
  29   18   19 ar
  30   18   23 ar
  31   18   24 1
  32   19   20 ar
  33   19   39 1
  34   20   21 ar
  35   20   40 1
  36   21   22 ar
  37   22   23 ar
  38   22   41 1
  39   23   42 1
  40   24   25 ar
  41   24   29 ar
  42   25   26 ar
  43   25   30 1
  44   26   27 ar
  45   26   43 1
  46   27   28 ar
  47   27   44 1
  48   28   29 ar
  49   28   45 1
  50   29   46 1

#	End of record

