#	Name: ASD03090036
#	Creating user name:	WinNT
#	Creation time:	15. 06. 2019 20:28

#	Modifying user name:	WinNT
#	Modification time:	15. 06. 2019 20:28

#	Program:	/corina/corina34_cracker 3.40 0067  02.08.2006

@<TRIPOS>MOLECULE
ASD03090036
 112  115    0    0    0
SMALL
NO_CHARGES


@<TRIPOS>ATOM
   1 C1            -0.0167     1.3782     0.0096 C.ar    
   2 C2             0.0021    -0.0041     0.0020 C.ar    
   3 C3             1.2072    -0.6797    -0.0127 C.ar    
   4 C4             2.3989     0.0301    -0.0203 C.ar    
   5 C5             2.3774     1.4175    -0.0131 C.ar    
   6 C6             1.1700     2.0882     0.0021 C.ar    
   7 C7             3.6702     2.1918    -0.0209 C.3     
   8 N8             4.2015     2.2440    -1.3894 N.3     
   9 C9             5.4645     2.9929    -1.4356 C.3     
  10 C10            5.9779     3.0250    -2.8521 C.ar    
  11 C11            5.6058     4.0522    -3.6990 C.ar    
  12 C12            6.0768     4.0816    -4.9983 C.ar    
  13 C13            6.9202     3.0841    -5.4506 C.ar    
  14 C14            7.2930     2.0574    -4.6033 C.ar    
  15 C15            6.8255     2.0303    -3.3027 C.ar    
  16 C16            7.4328     3.1156    -6.8673 C.3     
  17 N17            8.6953     3.8652    -6.9147 N.3     
  18 C18            9.2258     3.9168    -8.2836 C.3     
  19 C19           10.5379     4.7038    -8.2927 C.3     
  20 C20           11.0905     4.7576    -9.7184 C.3     
  21 C21           12.4025     5.5445    -9.7275 C.3     
  22 C22           12.9551     5.5983   -11.1532 C.3     
  23 C23           14.2672     6.3852   -11.1623 C.3     
  24 C24           14.8198     6.4390   -12.5880 C.3     
  25 C25           16.1318     7.2259   -12.5971 C.3     
  26 C26           16.6844     7.2797   -14.0228 C.3     
  27 C27           17.9965     8.0666   -14.0319 C.3     
  28 C28           18.5491     8.1204   -15.4576 C.3     
  29 C29           19.8611     8.9073   -15.4667 C.3     
  30 N30           20.3917     8.9590   -16.8356 N.3     
  31 C31           21.6541     9.7086   -16.8830 C.3     
  32 C32           22.1668     9.7401   -18.2998 C.ar    
  33 C33           21.7936    10.7666   -19.1471 C.ar    
  34 C34           22.2638    10.7955   -20.4467 C.ar    
  35 C35           23.1075     9.7982   -20.8988 C.ar    
  36 C36           23.4814     8.7722   -20.0512 C.ar    
  37 C37           23.0147     8.7457   -18.7503 C.ar    
  38 C38           23.6193     9.8291   -22.3159 C.3     
  39 N39           24.8813    10.5795   -22.3645 N.3     
  40 C40           25.4110    10.6306   -23.7337 C.3     
  41 C41           26.7029    11.4064   -23.7439 C.ar    
  42 C42           26.7128    12.7272   -24.1479 C.ar    
  43 C43           27.8980    13.4397   -24.1575 C.ar    
  44 C44           29.0755    12.8325   -23.7624 C.ar    
  45 C45           29.0708    11.5117   -23.3569 C.ar    
  46 C46           27.8825    10.7963   -23.3418 C.ar    
  47 O47           27.8752     9.4970   -22.9434 O.3     
  48 C48           29.1280     8.9311   -22.5531 C.3     
  49 O49            3.5855    -0.6321    -0.0344 O.3     
  50 C50            3.5315    -2.0601    -0.0406 C.3     
  51 H51           -0.9597     1.9045     0.0170 H       
  52 H52           -0.9260    -0.5563     0.0079 H       
  53 H53            1.2213    -1.7596    -0.0179 H       
  54 H54            1.1527     3.1681     0.0077 H       
  55 H55            3.4889     3.2052     0.3374 H       
  56 H56            4.3923     1.6998     0.6308 H       
  57 H57            4.3174     1.3159    -1.7679 H       
  58 H58            5.2956     4.0118    -1.0872 H       
  59 H59            6.1990     2.5065    -0.7938 H       
  60 H60            4.9469     4.8315    -3.3457 H       
  61 H61            5.7855     4.8837    -5.6603 H       
  62 H62            7.9516     1.2778    -4.9567 H       
  63 H63            7.1168     1.2282    -2.6408 H       
  64 H64            7.6020     2.0966    -7.2153 H       
  65 H65            6.6976     3.6012    -7.5090 H       
  66 H66            8.5790     4.7935    -6.5367 H       
  67 H67            9.4075     2.9034    -8.6413 H       
  68 H68            8.5030     4.4080    -8.9351 H       
  69 H69           10.3562     5.7172    -7.9349 H       
  70 H70           11.2607     4.2126    -7.6412 H       
  71 H71           11.2721     3.7441   -10.0761 H       
  72 H72           10.3677     5.2487   -10.3699 H       
  73 H73           12.2209     6.5579    -9.3698 H       
  74 H74           13.1253     5.0533    -9.0760 H       
  75 H75           13.1368     4.5848   -11.5109 H       
  76 H76           12.2323     6.0894   -11.8047 H       
  77 H77           14.0855     7.3987   -10.8046 H       
  78 H78           14.9900     5.8940   -10.5108 H       
  79 H79           15.0014     5.4255   -12.9458 H       
  80 H80           14.0970     6.9302   -13.2395 H       
  81 H81           15.9502     8.2394   -12.2394 H       
  82 H82           16.8546     6.7347   -11.9456 H       
  83 H83           16.8661     6.2662   -14.3806 H       
  84 H84           15.9616     7.7709   -14.6743 H       
  85 H85           17.8148     9.0801   -13.6742 H       
  86 H86           18.7193     7.5754   -13.3804 H       
  87 H87           18.7307     7.1069   -15.8154 H       
  88 H88           17.8263     8.6116   -16.1091 H       
  89 H89           19.6795     9.9208   -15.1090 H       
  90 H90           20.5839     8.4162   -14.8152 H       
  91 H91           20.5079     8.0307   -17.2136 H       
  92 H92           21.4849    10.7276   -16.5351 H       
  93 H93           22.3893     9.2230   -16.2413 H       
  94 H94           21.1344    11.5457   -18.7939 H       
  95 H95           21.9716    11.5970   -21.1090 H       
  96 H96           24.1403     7.9928   -20.4045 H       
  97 H97           23.3068     7.9441   -18.0880 H       
  98 H98           23.7889     8.8100   -22.6633 H       
  99 H99           22.8835    10.3139   -22.9575 H       
 100 H100          24.7647    11.5079   -21.9870 H       
 101 H101          25.5931     9.6170   -24.0909 H       
 102 H102          24.6876    11.1209   -24.3851 H       
 103 H103          25.7943    13.2038   -24.4570 H       
 104 H104          27.9038    14.4721   -24.4744 H       
 105 H105          29.9998    13.3910   -23.7710 H       
 106 H106          29.9909    11.0377   -23.0487 H       
 107 H107          29.8240     8.9767   -23.3907 H       
 108 H108          29.5343     9.4931   -21.7121 H       
 109 H109          28.9813     7.8919   -22.2587 H       
 110 H110           3.0125    -2.4079     0.8526 H       
 111 H111           2.9961    -2.3995    -0.9273 H       
 112 H112           4.5447    -2.4619    -0.0518 H       
@<TRIPOS>BOND
   1    1    2 ar
   2    1    6 ar
   3    1   51 1
   4    2    3 ar
   5    2   52 1
   6    3    4 ar
   7    3   53 1
   8    4    5 ar
   9    4   49 1
  10    5    6 ar
  11    5    7 1
  12    6   54 1
  13    7    8 1
  14    7   55 1
  15    7   56 1
  16    8    9 1
  17    8   57 1
  18    9   10 1
  19    9   58 1
  20    9   59 1
  21   10   11 ar
  22   10   15 ar
  23   11   12 ar
  24   11   60 1
  25   12   13 ar
  26   12   61 1
  27   13   14 ar
  28   13   16 1
  29   14   15 ar
  30   14   62 1
  31   15   63 1
  32   16   17 1
  33   16   64 1
  34   16   65 1
  35   17   18 1
  36   17   66 1
  37   18   19 1
  38   18   67 1
  39   18   68 1
  40   19   20 1
  41   19   69 1
  42   19   70 1
  43   20   21 1
  44   20   71 1
  45   20   72 1
  46   21   22 1
  47   21   73 1
  48   21   74 1
  49   22   23 1
  50   22   75 1
  51   22   76 1
  52   23   24 1
  53   23   77 1
  54   23   78 1
  55   24   25 1
  56   24   79 1
  57   24   80 1
  58   25   26 1
  59   25   81 1
  60   25   82 1
  61   26   27 1
  62   26   83 1
  63   26   84 1
  64   27   28 1
  65   27   85 1
  66   27   86 1
  67   28   29 1
  68   28   87 1
  69   28   88 1
  70   29   30 1
  71   29   89 1
  72   29   90 1
  73   30   31 1
  74   30   91 1
  75   31   32 1
  76   31   92 1
  77   31   93 1
  78   32   33 ar
  79   32   37 ar
  80   33   34 ar
  81   33   94 1
  82   34   35 ar
  83   34   95 1
  84   35   36 ar
  85   35   38 1
  86   36   37 ar
  87   36   96 1
  88   37   97 1
  89   38   39 1
  90   38   98 1
  91   38   99 1
  92   39   40 1
  93   39  100 1
  94   40   41 1
  95   40  101 1
  96   40  102 1
  97   41   42 ar
  98   41   46 ar
  99   42   43 ar
 100   42  103 1
 101   43   44 ar
 102   43  104 1
 103   44   45 ar
 104   44  105 1
 105   45   46 ar
 106   45  106 1
 107   46   47 1
 108   47   48 1
 109   48  107 1
 110   48  108 1
 111   48  109 1
 112   49   50 1
 113   50  110 1
 114   50  111 1
 115   50  112 1

#	End of record

