#	Name: ASD05143053
#	Creating user name:	WinNT
#	Creation time:	15. 06. 2019 20:57

#	Modifying user name:	WinNT
#	Modification time:	15. 06. 2019 20:57

#	Program:	/corina/corina34_cracker 3.40 0067  02.08.2006

@<TRIPOS>MOLECULE
ASD05143053
 141  144    0    0    0
SMALL
NO_CHARGES


@<TRIPOS>ATOM
   1 C1            -2.0931     5.4489     7.5661 C.2     
   2 C2            -1.6061     4.7172     8.7903 C.3     
   3 N3            -1.2064     5.9802     6.7013 N.am    
   4 O4            -3.2829     5.5554     7.3567 O.2     
   5 C5            -1.6799     6.6915     5.5113 C.3     
   6 C6            -2.5148     5.7430     4.6486 C.3     
   7 C7            -2.5267     7.8651     5.9313 C.2     
   8 C8            -1.6239     4.6172     4.1196 C.3     
   9 C9            -2.4588     3.6687     3.2570 C.3     
  10 N10           -1.6058     2.5908     2.7504 N.pl3   
  11 C11           -2.1398     1.6118     1.9462 C.2     
  12 N12           -3.4743     1.6444     1.6175 N.pl3   
  13 N13           -1.3808     0.6528     1.4955 N.2     
  14 O14           -3.0178     7.8927     7.0399 O.2     
  15 N15           -2.7383     8.8842     5.0750 N.am    
  16 C16           -3.5615    10.0252     5.4834 C.3     
  17 C17           -2.6579    11.2178     5.8025 C.3     
  18 C18           -1.5005    10.7583     6.6912 C.3     
  19 C19           -0.3608    10.2836     5.8271 C.2     
  20 O20           -0.5651     9.5480     4.8848 O.2     
  21 N21            0.9068    10.6975     6.1246 N.am    
  22 C22            1.9687    10.1808     5.2312 C.3     
  23 C23            2.1173    11.1345     4.0441 C.3     
  24 C24            2.7787    10.3972     2.8780 C.3     
  25 C25            3.7363    11.3444     2.1522 C.3     
  26 N26            3.6824    11.0589     0.7043 N.am    
  27 C27            5.1395    11.1288     2.6576 C.2     
  28 N28            5.5290    11.6839     3.8223 N.am    
  29 O29            5.9184    10.4558     2.0162 O.2     
  30 C30            2.8553    11.8429    -0.0397 C.2     
  31 O31            2.2123    12.7278     0.4842 O.2     
  32 C32            2.7487    11.5979    -1.5228 C.3     
  33 N33            1.5334    12.2779    -2.0267 N.am    
  34 C34            3.9835    12.1637    -2.2271 C.3     
  35 C35            0.4797    11.4569    -2.3134 C.2     
  36 O36            0.5713    10.2574    -2.1595 O.2     
  37 C37           -0.7988    12.0700    -2.8241 C.3     
  38 N38           -1.9252    11.1791    -2.4814 N.am    
  39 C39           -1.0089    13.4370    -2.1698 C.3     
  40 C40           -3.0289    11.7706    -1.9470 C.2     
  41 O41           -3.0578    12.9696    -1.7665 O.2     
  42 C42           -4.2142    10.9140    -1.5833 C.3     
  43 C43            3.9331    11.8098    -3.6911 C.2     
  44 C44            3.2333    12.5510    -4.7432 C.ar    
  45 C45            3.4692    11.8465    -5.9376 C.ar    
  46 N46            4.2547    10.7610    -5.6206 N.pl3   
  47 C47            4.5256    10.7587    -4.2794 C.2     
  48 C48            2.4567    13.7113    -4.7604 C.ar    
  49 C49            1.9292    14.1569    -5.9392 C.ar    
  50 C50            2.1587    13.4650    -7.1208 C.ar    
  51 C51            2.9226    12.3187    -7.1267 C.ar    
  52 N52           -4.7979    11.4228    -0.3211 N.am    
  53 C53           -3.7611     9.4653    -1.3919 C.3     
  54 C54           -4.9595     8.5978    -1.1049 C.ar    
  55 C55           -5.9899     8.5207    -2.0251 C.ar    
  56 C56           -7.0897     7.7283    -1.7690 C.ar    
  57 C57           -7.1614     7.0031    -0.5779 C.ar    
  58 C58           -6.1180     7.0856     0.3462 C.ar    
  59 C59           -5.0217     7.8778     0.0749 C.ar    
  60 C60           -4.5014    10.3928     4.3641 C.2     
  61 O61           -5.6996    10.2619     4.4990 O.2     
  62 C62           -1.0163    13.2782    -0.6481 C.3     
  63 C63           -1.3730    14.6163     0.0026 C.3     
  64 N64           -1.3801    14.4643     1.4596 N.pl3   
  65 C65           -1.6759    15.5410     2.2617 C.2     
  66 N66           -1.6826    15.3984     3.6291 N.pl3   
  67 N67           -1.9500    16.6971     1.7257 N.2     
  68 N68           -3.9862    10.8734     3.1993 N.am    
  69 C69           -4.9555    11.2167     2.1396 C.3     
  70 C70           -4.4029    10.7684     0.8112 C.2     
  71 O71           -3.6218     9.8427     0.7484 O.2     
  72 C72           -8.3002     6.1788    -0.3052 C.1     
  73 N73           -9.2036     5.5249    -0.0889 N.1     
  74 C74           -5.1769    12.7304     2.1182 C.3     
  75 H75           -0.5162     4.7205     8.8058 H       
  76 H76           -1.9837     5.2133     9.6843 H       
  77 H77           -1.9660     3.6887     8.7660 H       
  78 H78           -0.2547     5.8915     6.8667 H       
  79 H79           -0.8249     7.0475     4.9366 H       
  80 H80           -3.3188     5.3180     5.2496 H       
  81 H81           -2.9404     6.2941     3.8100 H       
  82 H82           -0.8199     5.0421     3.5186 H       
  83 H83           -1.1984     4.0661     4.9582 H       
  84 H84           -3.2628     3.2438     3.8579 H       
  85 H85           -2.8844     4.2199     2.4184 H       
  86 H86           -0.6642     2.5678     2.9823 H       
  87 H87           -4.0392     2.3581     1.9529 H       
  88 H88           -3.8511     0.9537     1.0501 H       
  89 H89           -1.7576    -0.0379     0.9282 H       
  90 H90           -2.3455     8.8622     4.1884 H       
  91 H91           -4.1379     9.7588     6.3693 H       
  92 H92           -2.2617    11.6317     4.8752 H       
  93 H93           -3.2350    11.9816     6.3237 H       
  94 H94           -1.1650    11.5906     7.3100 H       
  95 H95           -1.8357     9.9421     7.3310 H       
  96 H96            1.0979    11.2891     6.8692 H       
  97 H97            2.9109    10.1262     5.7766 H       
  98 H98            1.6936     9.1893     4.8716 H       
  99 H99            1.1333    11.4898     3.7381 H       
 100 H100           2.7360    11.9833     4.3351 H       
 101 H101           3.3345     9.5402     3.2585 H       
 102 H102           2.0119    10.0535     2.1837 H       
 103 H103           3.4356    12.3765     2.3324 H       
 104 H104           4.2090    10.3493     0.3043 H       
 105 H105           4.9061    12.2221     4.3353 H       
 106 H106           6.4322    11.5451     4.1476 H       
 107 H107           2.6742    10.5271    -1.7125 H       
 108 H108           1.4887    13.2396    -2.1452 H       
 109 H109           4.0004    13.2479    -2.1158 H       
 110 H110           4.8828    11.7386    -1.7813 H       
 111 H111          -0.7412    12.1861    -3.9064 H       
 112 H112          -1.8810    10.2215    -2.6291 H       
 113 H113          -0.2003    14.1074    -2.4612 H       
 114 H114          -1.9618    13.8535    -2.4963 H       
 115 H115          -4.9593    10.9647    -2.3773 H       
 116 H116           4.5718    10.0986    -6.2543 H       
 117 H117           5.1215    10.0169    -3.7685 H       
 118 H118           2.2734    14.2543    -3.8450 H       
 119 H119           1.3286    15.0544    -5.9521 H       
 120 H120           1.7347    13.8295    -8.0447 H       
 121 H121           3.0956    11.7877    -8.0510 H       
 122 H122          -5.4173    12.1689    -0.2997 H       
 123 H123          -3.2685     9.1157    -2.2993 H       
 124 H124          -3.0640     9.4100    -0.5558 H       
 125 H125          -5.9333     9.0825    -2.9457 H       
 126 H126          -7.8935     7.6693    -2.4879 H       
 127 H127          -6.1673     6.5275     1.2695 H       
 128 H128          -4.2139     7.9425     0.7888 H       
 129 H129          -1.7545    12.5281    -0.3646 H       
 130 H130          -0.0291    12.9620    -0.3109 H       
 131 H131          -0.6348    15.3664    -0.2809 H       
 132 H132          -2.3602    14.9325    -0.3346 H       
 133 H133          -1.1762    13.6039     1.8585 H       
 134 H134          -1.4786    14.5380     4.0280 H       
 135 H135          -1.8912    16.1581     4.1950 H       
 136 H136          -2.1586    17.4568     2.2916 H       
 137 H137          -3.0311    10.9849     3.0720 H       
 138 H138          -5.9012    10.7099     2.3316 H       
 139 H139          -4.2304    13.2333     1.9202 H       
 140 H140          -5.8926    12.9819     1.3355 H       
 141 H141          -5.5656    13.0545     3.0836 H       
@<TRIPOS>BOND
   1    1    2 1
   2    1    3 am
   3    1    4 2
   4    2   75 1
   5    2   76 1
   6    2   77 1
   7    3    5 1
   8    3   78 1
   9    5    6 1
  10    5    7 1
  11    5   79 1
  12    6    8 1
  13    6   80 1
  14    6   81 1
  15    7   14 2
  16    7   15 am
  17    8    9 1
  18    8   82 1
  19    8   83 1
  20    9   10 1
  21    9   84 1
  22    9   85 1
  23   10   11 1
  24   10   86 1
  25   11   12 1
  26   11   13 2
  27   12   87 1
  28   12   88 1
  29   13   89 1
  30   15   16 1
  31   15   90 1
  32   16   17 1
  33   16   60 1
  34   16   91 1
  35   17   18 1
  36   17   92 1
  37   17   93 1
  38   18   19 1
  39   18   94 1
  40   18   95 1
  41   19   20 2
  42   19   21 am
  43   21   22 1
  44   21   96 1
  45   22   23 1
  46   22   97 1
  47   22   98 1
  48   23   24 1
  49   23   99 1
  50   23  100 1
  51   24   25 1
  52   24  101 1
  53   24  102 1
  54   25   26 1
  55   25   27 1
  56   25  103 1
  57   26   30 am
  58   26  104 1
  59   27   28 am
  60   27   29 2
  61   28  105 1
  62   28  106 1
  63   30   31 2
  64   30   32 1
  65   32   33 1
  66   32   34 1
  67   32  107 1
  68   33   35 am
  69   33  108 1
  70   34   43 1
  71   34  109 1
  72   34  110 1
  73   35   36 2
  74   35   37 1
  75   37   38 1
  76   37   39 1
  77   37  111 1
  78   38   40 am
  79   38  112 1
  80   39   62 1
  81   39  113 1
  82   39  114 1
  83   40   41 2
  84   40   42 1
  85   42   52 1
  86   42   53 1
  87   42  115 1
  88   43   44 1
  89   43   47 2
  90   44   45 ar
  91   44   48 ar
  92   45   46 1
  93   45   51 ar
  94   46   47 1
  95   46  116 1
  96   47  117 1
  97   48   49 ar
  98   48  118 1
  99   49   50 ar
 100   49  119 1
 101   50   51 ar
 102   50  120 1
 103   51  121 1
 104   52   70 am
 105   52  122 1
 106   53   54 1
 107   53  123 1
 108   53  124 1
 109   54   55 ar
 110   54   59 ar
 111   55   56 ar
 112   55  125 1
 113   56   57 ar
 114   56  126 1
 115   57   58 ar
 116   57   72 1
 117   58   59 ar
 118   58  127 1
 119   59  128 1
 120   60   61 2
 121   60   68 am
 122   62   63 1
 123   62  129 1
 124   62  130 1
 125   63   64 1
 126   63  131 1
 127   63  132 1
 128   64   65 1
 129   64  133 1
 130   65   66 1
 131   65   67 2
 132   66  134 1
 133   66  135 1
 134   67  136 1
 135   68   69 1
 136   68  137 1
 137   69   70 1
 138   69   74 1
 139   69  138 1
 140   70   71 2
 141   72   73 3
 142   74  139 1
 143   74  140 1
 144   74  141 1

#	End of record

