#	Name: ASD04912007
#	Creating user name:	WinNT
#	Creation time:	15. 06. 2019 20:56

#	Modifying user name:	WinNT
#	Modification time:	15. 06. 2019 20:56

#	Program:	/corina/corina34_cracker 3.40 0067  02.08.2006

@<TRIPOS>MOLECULE
ASD04912007
  55   58    0    0    0
SMALL
NO_CHARGES


@<TRIPOS>ATOM
   1 C1            -0.0462     1.3890     0.0661 C.2     
   2 C2            -0.1011     0.2907    -0.7303 C.2     
   3 C3             1.2175     2.1111     0.2320 C.2     
   4 C4             1.4116     3.5664     0.1965 C.2     
   5 N5             2.6924     3.7879     0.3882 N.2     
   6 N6             3.3515     2.5660     0.5475 N.pl3   
   7 C7             2.4660     1.5582     0.4594 C.2     
   8 C8             4.7259     2.4144     0.7710 C.ar    
   9 C9             0.3621     4.5907    -0.0158 C.ar    
  10 C10            0.4400     5.8179     0.6422 C.ar    
  11 C11           -0.5383     6.7688     0.4425 C.ar    
  12 C12           -1.6003     6.5055    -0.4123 C.ar    
  13 C13           -1.6811     5.2846    -1.0687 C.ar    
  14 C14           -0.7027     4.3319    -0.8786 C.ar    
  15 C15            5.5456     3.5326     0.8499 C.ar    
  16 C16            6.9004     3.3798     1.0702 C.ar    
  17 C17            7.4409     2.1149     1.2122 C.ar    
  18 C18            6.6274     0.9994     1.1342 C.ar    
  19 C19            5.2709     1.1458     0.9197 C.ar    
  20 O20           -2.5629     7.4445    -0.6066 O.3     
  21 C21           -3.6270     7.1078    -1.4990 C.3     
  22 C22            0.9860    -0.0299    -1.5606 C.2     
  23 O23            1.9250     0.7354    -1.6547 O.2     
  24 C24            0.9873    -1.3230    -2.3345 C.3     
  25 C25            2.2564    -1.4246    -3.1408 C.ar    
  26 C26            3.3767    -2.0209    -2.5895 C.ar    
  27 C27            4.5417    -2.1172    -3.3219 C.ar    
  28 C28            4.5886    -1.6112    -4.6225 C.ar    
  29 C29            3.4545    -1.0108    -5.1726 C.ar    
  30 C30            2.2944    -0.9262    -4.4310 C.ar    
  31 C31            5.8329    -1.7104    -5.4127 C.2     
  32 O32            5.8748    -1.2212    -6.6672 O.3     
  33 O33            6.8181    -2.2329    -4.9313 O.2     
  34 H34           -0.9353     1.7328     0.5739 H       
  35 H35           -0.9803    -0.3364    -0.7256 H       
  36 H36            2.6899     0.5050     0.5439 H       
  37 H37            1.2654     6.0231     1.3078 H       
  38 H38           -0.4786     7.7193     0.9518 H       
  39 H39           -2.5089     5.0827    -1.7324 H       
  40 H40           -0.7659     3.3826    -1.3896 H       
  41 H41            5.1241     4.5207     0.7387 H       
  42 H42            7.5384     4.2490     1.1313 H       
  43 H43            8.5007     1.9980     1.3841 H       
  44 H44            7.0525     0.0128     1.2455 H       
  45 H45            4.6360     0.2742     0.8593 H       
  46 H46           -4.1487     6.2264    -1.1262 H       
  47 H47           -4.3247     7.9427    -1.5639 H       
  48 H48           -3.2191     6.8975    -2.4877 H       
  49 H49            0.9296    -2.1617    -1.6407 H       
  50 H50            0.1282    -1.3462    -3.0049 H       
  51 H51            3.3391    -2.4115    -1.5833 H       
  52 H52            5.4155    -2.5825    -2.8903 H       
  53 H53            3.4840    -0.6174    -6.1780 H       
  54 H54            1.4163    -0.4620    -4.8553 H       
  55 H55            6.7109    -1.3092    -7.1449 H       
@<TRIPOS>BOND
   1    1    2 2
   2    1    3 1
   3    1   34 1
   4    2   22 1
   5    2   35 1
   6    3    4 1
   7    3    7 2
   8    4    5 2
   9    4    9 1
  10    5    6 1
  11    6    7 1
  12    6    8 1
  13    7   36 1
  14    8   15 ar
  15    8   19 ar
  16    9   10 ar
  17    9   14 ar
  18   10   11 ar
  19   10   37 1
  20   11   12 ar
  21   11   38 1
  22   12   13 ar
  23   12   20 1
  24   13   14 ar
  25   13   39 1
  26   14   40 1
  27   15   16 ar
  28   15   41 1
  29   16   17 ar
  30   16   42 1
  31   17   18 ar
  32   17   43 1
  33   18   19 ar
  34   18   44 1
  35   19   45 1
  36   20   21 1
  37   21   46 1
  38   21   47 1
  39   21   48 1
  40   22   23 2
  41   22   24 1
  42   24   25 1
  43   24   49 1
  44   24   50 1
  45   25   26 ar
  46   25   30 ar
  47   26   27 ar
  48   26   51 1
  49   27   28 ar
  50   27   52 1
  51   28   29 ar
  52   28   31 1
  53   29   30 ar
  54   29   53 1
  55   30   54 1
  56   31   32 1
  57   31   33 2
  58   32   55 1

#	End of record

