#	Name: ASD01917608
#	Creating user name:	WinNT
#	Creation time:	15. 06. 2019 20:09

#	Modifying user name:	WinNT
#	Modification time:	15. 06. 2019 20:09

#	Program:	/corina/corina34_cracker 3.40 0067  02.08.2006

@<TRIPOS>MOLECULE
ASD01917608
  26   28    0    0    0
SMALL
NO_CHARGES


@<TRIPOS>ATOM
   1 C1            -0.0161     1.3336     0.0094 C.2     
   2 N2             0.0021    -0.0041     0.0020 N.2     
   3 C3             1.1389    -0.6632    -0.0124 C.2     
   4 C4             2.3561     0.0287    -0.0203 C.2     
   5 C5             2.3466     1.3880    -0.0129 C.2     
   6 N6             1.1540     2.0390     0.0020 N.pl3   
   7 N7             0.8014     3.3949     0.0122 N.2     
   8 C8            -0.5149     3.4506     0.0248 C.2     
   9 N9            -1.0104     2.2156     0.0182 N.2     
  10 N10           -1.2703     4.6201     0.0382 N.3     
  11 C11           -2.7090     4.3180     0.0500 C.3     
  12 C12           -3.4993     5.6270     0.1248 C.3     
  13 O13           -3.1309     6.4640    -0.9747 O.3     
  14 C14           -1.7364     6.7788    -1.0167 C.3     
  15 C15           -0.9283     5.4814    -1.1031 C.3     
  16 Br16           3.9938    -0.9166    -0.0404 Br      
  17 H17            1.1342    -1.7432    -0.0178 H       
  18 H18            3.2734     1.9424    -0.0191 H       
  19 H19           -2.9761     3.7832    -0.8615 H       
  20 H20           -2.9442     3.7007     0.9171 H       
  21 H21           -4.5666     5.4111     0.0763 H       
  22 H22           -3.2726     6.1360     1.0616 H       
  23 H23           -1.5288     7.3959    -1.8909 H       
  24 H24           -1.4584     7.3213    -0.1131 H       
  25 H25            0.1364     5.7134    -1.0777 H       
  26 H26           -1.1669     4.9652    -2.0330 H       
@<TRIPOS>BOND
   1    1    2 1
   2    1    6 1
   3    1    9 2
   4    2    3 2
   5    3    4 1
   6    3   17 1
   7    4    5 2
   8    4   16 1
   9    5    6 1
  10    5   18 1
  11    6    7 1
  12    7    8 2
  13    8    9 1
  14    8   10 1
  15   10   11 1
  16   10   15 1
  17   11   12 1
  18   11   19 1
  19   11   20 1
  20   12   13 1
  21   12   21 1
  22   12   22 1
  23   13   14 1
  24   14   15 1
  25   14   23 1
  26   14   24 1
  27   15   25 1
  28   15   26 1

#	End of record

