#	Name: ASD04162016
#	Creating user name:	WinNT
#	Creation time:	15. 06. 2019 20:48

#	Modifying user name:	WinNT
#	Modification time:	15. 06. 2019 20:48

#	Program:	/corina/corina34_cracker 3.40 0067  02.08.2006

@<TRIPOS>MOLECULE
ASD04162016
  31   32    0    0    0
SMALL
NO_CHARGES


@<TRIPOS>ATOM
   1 C1            -0.0167     1.3770     0.0096 C.ar    
   2 C2             0.0021    -0.0041     0.0020 C.ar    
   3 C3             1.2119    -0.6817    -0.0132 C.ar    
   4 C4             2.4050     0.0272    -0.0203 C.ar    
   5 C5             2.3877     1.4093    -0.0127 C.ar    
   6 C6             1.1764     2.0877     0.0020 C.ar    
   7 O7             1.2292    -2.0418    -0.0206 O.3     
   8 C8            -1.2928    -0.7749     0.0107 C.3     
   9 Cl9            3.9191    -0.8218    -0.0381 Cl      
  10 N10            1.1578     3.4869     0.0093 N.am    
  11 S11            2.1513     4.3335    -1.0099 S.o2    
  12 O12            1.8742     5.7095    -0.7888 O.2     
  13 O13            3.4475     3.7689    -0.8672 O.2     
  14 C14            1.6330     3.9798    -2.6564 C.ar    
  15 C15            0.6762     4.7706    -3.2647 C.ar    
  16 C16            0.2695     4.4931    -4.5564 C.ar    
  17 C17            0.8200     3.4251    -5.2400 C.ar    
  18 C18            1.7775     2.6349    -4.6320 C.ar    
  19 C19            2.1873     2.9150    -3.3418 C.ar    
  20 H20           -0.9592     1.9042     0.0169 H       
  21 H21            3.3160     1.9612    -0.0178 H       
  22 H22            1.2258    -2.4304    -0.9061 H       
  23 H23           -1.6152    -0.9552    -1.0148 H       
  24 H24           -1.1448    -1.7282     0.5180 H       
  25 H25           -2.0551    -0.1988     0.5352 H       
  26 H26            0.5629     3.9609     0.6112 H       
  27 H27            0.2460     5.6050    -2.7306 H       
  28 H28           -0.4786     5.1105    -5.0314 H       
  29 H29            0.5018     3.2079    -6.2489 H       
  30 H30            2.2074     1.8003    -5.1659 H       
  31 H31            2.9354     2.2977    -2.8668 H       
@<TRIPOS>BOND
   1    1    2 ar
   2    1    6 ar
   3    1   20 1
   4    2    3 ar
   5    2    8 1
   6    3    4 ar
   7    3    7 1
   8    4    5 ar
   9    4    9 1
  10    5    6 ar
  11    5   21 1
  12    6   10 1
  13    7   22 1
  14    8   23 1
  15    8   24 1
  16    8   25 1
  17   10   11 am
  18   10   26 1
  19   11   12 2
  20   11   13 2
  21   11   14 1
  22   14   15 ar
  23   14   19 ar
  24   15   16 ar
  25   15   27 1
  26   16   17 ar
  27   16   28 1
  28   17   18 ar
  29   17   29 1
  30   18   19 ar
  31   18   30 1
  32   19   31 1

#	End of record

