#	Name: ASD01881236
#	Creating user name:	WinNT
#	Creation time:	15. 06. 2019 19:42

#	Modifying user name:	WinNT
#	Modification time:	15. 06. 2019 19:42

#	Program:	/corina/corina34_cracker 3.40 0067  02.08.2006

@<TRIPOS>MOLECULE
ASD01881236
  41   43    0    0    0
SMALL
NO_CHARGES


@<TRIPOS>ATOM
   1 N1            -0.0158     1.3130     0.0093 N.ar    
   2 C2             0.0021    -0.0041     0.0020 C.ar    
   3 N3             1.1302    -0.6850    -0.0120 N.ar    
   4 C4             2.3048    -0.0610    -0.0198 C.ar    
   5 C5             2.3313     1.3279    -0.0131 C.ar    
   6 C6             1.1181     2.0110     0.0022 C.ar    
   7 C7             3.6395     2.0760    -0.0210 C.3     
   8 O8             4.0409     2.3193    -1.3708 O.3     
   9 C9             5.2072     2.9881    -1.5557 C.ar    
  10 C10            5.6566     3.2582    -2.8451 C.ar    
  11 C11            6.8359     3.9349    -3.0319 C.ar    
  12 C12            7.5920     4.3567    -1.9328 C.ar    
  13 C13            7.1363     4.0829    -0.6388 C.ar    
  14 C14            5.9480     3.4072    -0.4580 C.ar    
  15 C15            7.5885     4.3785    -4.2616 C.3     
  16 N16            8.7933     5.0635    -3.7793 N.am    
  17 C17            8.7908     5.0483    -2.4353 C.2     
  18 O18            9.6557     5.5368    -1.7339 O.2     
  19 Cl19           8.0619     4.5982     0.7365 Cl      
  20 N20            1.0911     3.3968     0.0090 N.pl3   
  21 C21            9.4715     7.1264    -4.9043 C.3     
  22 C22            9.8282     5.6652    -4.6237 C.3     
  23 O23            3.4597    -0.7704    -0.0338 O.3     
  24 C24            3.3461    -2.1949    -0.0394 C.3     
  25 H25           -0.9348    -0.5413     0.0081 H       
  26 H26            3.5177     3.0264     0.4987 H       
  27 H27            4.4013     1.4812     0.4830 H       
  28 H28            5.0779     2.9351    -3.6978 H       
  29 H29            5.5959     3.1961     0.5410 H       
  30 H30            7.8652     3.5133    -4.8640 H       
  31 H31            6.9771     5.0642    -4.8481 H       
  32 H32            1.9215     3.8981     0.0031 H       
  33 H33            0.2418     3.8653     0.0196 H       
  34 H34            9.4080     7.6721    -3.9629 H       
  35 H35           10.2415     7.5741    -5.5326 H       
  36 H36            8.5110     7.1738    -5.4174 H       
  37 H37           10.7887     5.6178    -4.1106 H       
  38 H38            9.8917     5.1195    -5.5651 H       
  39 H39            2.8132    -2.5204     0.8540 H       
  40 H40            2.7968    -2.5120    -0.9259 H       
  41 H41            4.3416    -2.6387    -0.0507 H       
@<TRIPOS>BOND
   1    1    2 ar
   2    1    6 ar
   3    2    3 ar
   4    2   25 1
   5    3    4 ar
   6    4    5 ar
   7    4   23 1
   8    5    6 ar
   9    5    7 1
  10    6   20 1
  11    7    8 1
  12    7   26 1
  13    7   27 1
  14    8    9 1
  15    9   10 ar
  16    9   14 ar
  17   10   11 ar
  18   10   28 1
  19   11   12 ar
  20   11   15 1
  21   12   13 ar
  22   12   17 1
  23   13   14 ar
  24   13   19 1
  25   14   29 1
  26   15   16 1
  27   15   30 1
  28   15   31 1
  29   16   17 am
  30   16   22 1
  31   17   18 2
  32   20   32 1
  33   20   33 1
  34   21   22 1
  35   21   34 1
  36   21   35 1
  37   21   36 1
  38   22   37 1
  39   22   38 1
  40   23   24 1
  41   24   39 1
  42   24   40 1
  43   24   41 1

#	End of record

