#	Name: ASD03730467
#	Creating user name:	WinNT
#	Creation time:	15. 06. 2019 20:44

#	Modifying user name:	WinNT
#	Modification time:	15. 06. 2019 20:44

#	Program:	/corina/corina34_cracker 3.40 0067  02.08.2006

@<TRIPOS>MOLECULE
ASD03730467
  55   60    0    0    0
SMALL
NO_CHARGES


@<TRIPOS>ATOM
   1 C1            -0.0465     1.4850     0.2239 C.2     
   2 C2            -0.0457    -0.0219     0.2059 C.3     
   3 O3             0.9869     2.0897     0.4175 O.2     
   4 N4            -1.1946     2.1607     0.0195 N.am    
   5 O5             5.7363     2.7527     3.4559 O.3     
   6 C6             7.0882     2.6735     3.9447 C.3     
   7 O7             7.1837     1.3372     4.4723 O.3     
   8 C8             6.2771     0.5995     3.7661 C.ar    
   9 C9             5.3867     1.4704     3.1422 C.ar    
  10 C10            6.1379    -0.7670     3.6017 C.ar    
  11 C11            5.1106    -1.2816     2.8165 C.ar    
  12 C12            4.2225    -0.4020     2.2051 C.ar    
  13 C13            4.3623     0.9612     2.3620 C.ar    
  14 O14            4.8097    -2.5771     2.5142 O.3     
  15 C15            3.2246    -1.2484     1.4609 C.3     
  16 C16            3.4512    -2.6513     2.0406 C.3     
  17 N17            1.3139    -0.5124     0.4450 N.am    
  18 C18            1.8137    -0.7780     1.6684 C.2     
  19 C19            3.4411    -1.2144    -0.0230 C.ar    
  20 C20            4.5084    -1.5240    -0.8360 C.ar    
  21 C21            4.3971    -1.3861    -2.2082 C.ar    
  22 C22            3.2118    -0.9361    -2.7608 C.ar    
  23 C23            2.1403    -0.6238    -1.9505 C.ar    
  24 C24            2.2431    -0.7599    -0.5683 C.ar    
  25 O25            1.2369    -0.6606     2.7288 O.2     
  26 C26           -1.2153     3.5552     0.1328 C.ar    
  27 C27           -0.1181     4.3028    -0.2744 C.ar    
  28 C28           -0.1417     5.6791    -0.1612 C.ar    
  29 C29           -1.2563     6.3127     0.3569 C.ar    
  30 C30           -2.3503     5.5711     0.7636 C.ar    
  31 C31           -2.3354     4.1950     0.6473 C.ar    
  32 C32           -1.2786     7.8146     0.4789 C.3     
  33 C33           -1.8458     8.4223    -0.8055 C.3     
  34 H34           -0.7090    -0.3950     0.9862 H       
  35 H35           -0.3933    -0.3738    -0.7654 H       
  36 H36           -2.0065     1.6803    -0.2062 H       
  37 H37            7.7988     2.8154     3.1305 H       
  38 H38            7.2545     3.4088     4.7320 H       
  39 H39            6.8310    -1.4389     4.0860 H       
  40 H40            3.6707     1.6331     1.8755 H       
  41 H41            3.3524    -3.4111     1.2653 H       
  42 H42            2.7641    -2.8454     2.8642 H       
  43 H43            5.4331    -1.8750    -0.4023 H       
  44 H44            5.2338    -1.6297    -2.8463 H       
  45 H45            3.1251    -0.8284    -3.8319 H       
  46 H46            1.2181    -0.2725    -2.3895 H       
  47 H47            0.7528     3.8085    -0.6788 H       
  48 H48            0.7114     6.2610    -0.4773 H       
  49 H49           -3.2191     6.0689     1.1681 H       
  50 H50           -3.1920     3.6167     0.9607 H       
  51 H51           -1.9047     8.1012     1.3239 H       
  52 H52           -0.2644     8.1814     0.6374 H       
  53 H53           -1.8620     9.5086    -0.7172 H       
  54 H54           -1.2197     8.1357    -1.6504 H       
  55 H55           -2.8600     8.0555    -0.9640 H       
@<TRIPOS>BOND
   1    1    2 1
   2    1    3 2
   3    1    4 am
   4    2   17 1
   5    2   34 1
   6    2   35 1
   7    4   26 1
   8    4   36 1
   9    5    6 1
  10    5    9 1
  11    6    7 1
  12    6   37 1
  13    6   38 1
  14    7    8 1
  15    8    9 ar
  16    8   10 ar
  17    9   13 ar
  18   10   11 ar
  19   10   39 1
  20   11   12 ar
  21   11   14 1
  22   12   13 ar
  23   12   15 1
  24   13   40 1
  25   14   16 1
  26   15   16 1
  27   15   18 1
  28   15   19 1
  29   16   41 1
  30   16   42 1
  31   17   18 am
  32   17   24 1
  33   18   25 2
  34   19   20 ar
  35   19   24 ar
  36   20   21 ar
  37   20   43 1
  38   21   22 ar
  39   21   44 1
  40   22   23 ar
  41   22   45 1
  42   23   24 ar
  43   23   46 1
  44   26   27 ar
  45   26   31 ar
  46   27   28 ar
  47   27   47 1
  48   28   29 ar
  49   28   48 1
  50   29   30 ar
  51   29   32 1
  52   30   31 ar
  53   30   49 1
  54   31   50 1
  55   32   33 1
  56   32   51 1
  57   32   52 1
  58   33   53 1
  59   33   54 1
  60   33   55 1

#	End of record

