#	Name: ASD08070164
#	Creating user name:	WinNT
#	Creation time:	15. 06. 2019 21:14

#	Modifying user name:	WinNT
#	Modification time:	15. 06. 2019 21:14

#	Program:	/corina/corina34_cracker 3.40 0067  02.08.2006

@<TRIPOS>MOLECULE
ASD08070164
  36   38    0    0    0
SMALL
NO_CHARGES


@<TRIPOS>ATOM
   1 C1            -0.0167     1.3789     0.0096 C.ar    
   2 C2             0.0021    -0.0041     0.0020 C.ar    
   3 C3             1.2074    -0.6860    -0.0127 C.ar    
   4 C4             2.3983     0.0122    -0.0199 C.ar    
   5 C5             2.3852     1.4079    -0.0128 C.ar    
   6 C6             1.1668     2.0884     0.0021 C.ar    
   7 N7             3.6407     3.5100    -0.0130 N.am    
   8 C8             3.6567     2.1623    -0.0200 C.2     
   9 C9             5.2706     3.3119    -2.2819 C.ar    
  10 C10            5.3789     4.4115    -1.4402 C.ar    
  11 C11            4.9006     4.2575    -0.0201 C.3     
  12 C12            5.6972     3.3869    -3.5915 C.ar    
  13 C13            6.2390     4.5653    -4.0706 C.ar    
  14 C14            6.3463     5.6587    -3.2366 C.ar    
  15 C15            5.9133     5.5865    -1.9187 C.ar    
  16 C16            6.0455     6.8226    -1.0681 C.3     
  17 C17            5.9418     6.4685     0.4140 C.3     
  18 C18            4.6786     5.6250     0.6229 C.3     
  19 O19            4.7164     1.5671    -0.0321 O.2     
  20 Cl20           1.2207    -2.4220    -0.0216 Cl      
  21 H21           -0.9600     1.9049     0.0170 H       
  22 H22           -0.9271    -0.5545     0.0080 H       
  23 H23            3.3379    -0.5202    -0.0307 H       
  24 H24            1.1503     3.1682     0.0074 H       
  25 H25            2.7950     3.9850    -0.0033 H       
  26 H26            4.8531     2.3892    -1.9067 H       
  27 H27            5.6476     3.7084     0.5532 H       
  28 H28            5.6086     2.5281    -4.2404 H       
  29 H29            6.5774     4.6293    -5.0942 H       
  30 H30            6.7708     6.5784    -3.6112 H       
  31 H31            7.0121     7.2888    -1.2594 H       
  32 H32            5.2517     7.5234    -1.3266 H       
  33 H33            6.8191     5.8971     0.7171 H       
  34 H34            5.8754     7.3815     1.0057 H       
  35 H35            3.8267     6.1173     0.1538 H       
  36 H36            4.4909     5.5029     1.6897 H       
@<TRIPOS>BOND
   1    1    2 ar
   2    1    6 ar
   3    1   21 1
   4    2    3 ar
   5    2   22 1
   6    3    4 ar
   7    3   20 1
   8    4    5 ar
   9    4   23 1
  10    5    6 ar
  11    5    8 1
  12    6   24 1
  13    7    8 am
  14    7   11 1
  15    7   25 1
  16    8   19 2
  17    9   10 ar
  18    9   12 ar
  19    9   26 1
  20   10   11 1
  21   10   15 ar
  22   11   18 1
  23   11   27 1
  24   12   13 ar
  25   12   28 1
  26   13   14 ar
  27   13   29 1
  28   14   15 ar
  29   14   30 1
  30   15   16 1
  31   16   17 1
  32   16   31 1
  33   16   32 1
  34   17   18 1
  35   17   33 1
  36   17   34 1
  37   18   35 1
  38   18   36 1

#	End of record

