#	Name: ASD03240100
#	Creating user name:	WinNT
#	Creation time:	15. 06. 2019 20:34

#	Modifying user name:	WinNT
#	Modification time:	15. 06. 2019 20:34

#	Program:	/corina/corina34_cracker 3.40 0067  02.08.2006

@<TRIPOS>MOLECULE
ASD03240100
  64   68    0    0    0
SMALL
NO_CHARGES


@<TRIPOS>ATOM
   1 C1            -1.2880    -2.0057     2.4604 C.ar    
   2 C2            -1.0120    -3.3566     2.1197 C.ar    
   3 C3            -0.2286    -1.0942     2.5862 C.ar    
   4 C4             1.0598    -1.5599     2.3689 C.ar    
   5 C5             1.2592    -2.9174     2.0329 C.ar    
   6 N6             0.2446    -3.7544     1.9209 N.ar    
   7 C7             2.6360    -3.4119     1.8009 C.ar    
   8 C8             2.2170    -0.6412     2.4876 C.ar    
   9 C9             2.2079     0.5850     1.8244 C.ar    
  10 C10            3.2879     1.4365     1.9390 C.ar    
  11 C11            4.3780     1.0753     2.7103 C.ar    
  12 C12            4.3928    -0.1403     3.3703 C.ar    
  13 C13            3.3162    -0.9974     3.2677 C.ar    
  14 C14            2.9878    -4.7073     2.1799 C.ar    
  15 C15            4.2720    -5.1623     1.9611 C.ar    
  16 C16            5.2098    -4.3363     1.3676 C.ar    
  17 C17            4.8669    -3.0505     0.9895 C.ar    
  18 C18            3.5842    -2.5861     1.1973 C.ar    
  19 C19            6.6109    -4.8391     1.1325 C.3     
  20 N20            6.6887    -5.4706    -0.1916 N.3     
  21 C21            9.4744    -7.1392    -2.1122 C.2     
  22 C22            8.0848    -6.6229    -1.8409 C.3     
  23 C23            8.0433    -5.9738    -0.4561 C.3     
  24 N24           -2.0400    -4.2075     2.0061 N.ar    
  25 C25           -3.2762    -3.7911     2.2079 C.ar    
  26 N26           -3.5684    -2.5314     2.5285 N.ar    
  27 C27           -2.6258    -1.6227     2.6684 C.ar    
  28 S28           -4.5944    -4.9490     2.0460 S.3     
  29 C29           -6.0034    -3.8751     2.4170 C.3     
  30 O30           10.3460    -7.0014    -1.2796 O.2     
  31 C31            9.7731    -7.8081    -3.3826 C.ar    
  32 C32           11.0920    -8.1882    -3.6901 C.ar    
  33 C33           11.3600    -8.8217    -4.8975 C.ar    
  34 C34           10.3373    -9.0748    -5.7877 C.ar    
  35 C35            9.0353    -8.7016    -5.4885 C.ar    
  36 C36            8.7463    -8.0783    -4.2960 C.ar    
  37 N37           12.1189    -7.9319    -2.7938 N.pl3   
  38 H38           -0.4108    -0.0614     2.8440 H       
  39 H39            1.3575     0.8679     1.2217 H       
  40 H40            3.2821     2.3865     1.4254 H       
  41 H41            5.2209     1.7448     2.7971 H       
  42 H42            5.2468    -0.4172     3.9707 H       
  43 H43            3.3287    -1.9461     3.7837 H       
  44 H44            2.2568    -5.3527     2.6439 H       
  45 H45            4.5456    -6.1651     2.2541 H       
  46 H46            5.6034    -2.4102     0.5269 H       
  47 H47            3.3176    -1.5823     0.9015 H       
  48 H48            7.3092    -4.0035     1.1781 H       
  49 H49            6.8681    -5.5700     1.8992 H       
  50 H50            6.0053    -6.2074    -0.2816 H       
  51 H51            7.8177    -5.8843    -2.5966 H       
  52 H52            7.3765    -7.4507    -1.8756 H       
  53 H53            8.7516    -5.1460    -0.4214 H       
  54 H54            8.3104    -6.7125     0.2996 H       
  55 H55           -2.8746    -0.6044     2.9286 H       
  56 H56           -5.8939    -3.4661     3.4215 H       
  57 H57           -6.0389    -3.0596     1.6946 H       
  58 H58           -6.9259    -4.4527     2.3585 H       
  59 H59           12.3706    -9.1161    -5.1394 H       
  60 H60           10.5518    -9.5668    -6.7249 H       
  61 H61            8.2430    -8.9052    -6.1936 H       
  62 H62            7.7305    -7.7904    -4.0685 H       
  63 H63           12.0224    -7.2271    -2.1343 H       
  64 H64           12.9336    -8.4574    -2.8264 H       
@<TRIPOS>BOND
   1    1    2 ar
   2    1    3 ar
   3    1   27 ar
   4    2   24 ar
   5    2    6 ar
   6    3    4 ar
   7    3   38 1
   8    4    5 ar
   9    4    8 1
  10    5    6 ar
  11    5    7 1
  12    7   14 ar
  13    7   18 ar
  14    8    9 ar
  15    8   13 ar
  16    9   10 ar
  17    9   39 1
  18   10   11 ar
  19   10   40 1
  20   11   12 ar
  21   11   41 1
  22   12   13 ar
  23   12   42 1
  24   13   43 1
  25   14   15 ar
  26   14   44 1
  27   15   16 ar
  28   15   45 1
  29   16   17 ar
  30   16   19 1
  31   17   18 ar
  32   17   46 1
  33   18   47 1
  34   19   20 1
  35   19   48 1
  36   19   49 1
  37   20   23 1
  38   20   50 1
  39   21   22 1
  40   21   30 2
  41   21   31 1
  42   22   23 1
  43   22   51 1
  44   22   52 1
  45   23   53 1
  46   23   54 1
  47   24   25 ar
  48   25   26 ar
  49   25   28 1
  50   26   27 ar
  51   27   55 1
  52   28   29 1
  53   29   56 1
  54   29   57 1
  55   29   58 1
  56   31   32 ar
  57   31   36 ar
  58   32   33 ar
  59   32   37 1
  60   33   34 ar
  61   33   59 1
  62   34   35 ar
  63   34   60 1
  64   35   36 ar
  65   35   61 1
  66   36   62 1
  67   37   63 1
  68   37   64 1

#	End of record

