#	Name: ASD06610016
#	Creating user name:	WinNT
#	Creation time:	15. 06. 2019 21:07

#	Modifying user name:	WinNT
#	Modification time:	15. 06. 2019 21:07

#	Program:	/corina/corina34_cracker 3.40 0067  02.08.2006

@<TRIPOS>MOLECULE
ASD06610016
 333  333    0    0    0
SMALL
NO_CHARGES


@<TRIPOS>ATOM
   1 C1             3.1683     5.3905    -7.1864 C.2     
   2 O2             3.4755     4.2527    -7.4725 O.2     
   3 N3             5.5343     5.9104    -7.3295 N.am    
   4 C4             4.1912     6.4932    -7.2793 C.3     
   5 C5             3.9434     7.3132    -8.5471 C.3     
   6 C6             4.9749     8.4397    -8.6356 C.3     
   7 O7             4.0625     6.4671    -9.6925 O.3     
   8 C8            -0.4749     5.2439    -6.9235 C.2     
   9 O9            -0.6174     6.4327    -6.7305 O.2     
  10 N10            1.9105     5.6696    -6.7906 N.am    
  11 C11            0.8903     4.6183    -6.7969 C.3     
  12 C12            0.9683     3.8241    -5.4914 C.3     
  13 C13            2.3212     3.1147    -5.4061 C.3     
  14 C14            0.8167     4.7777    -4.3045 C.3     
  15 C15           -3.9082     3.9973    -7.0692 C.2     
  16 O16           -3.5584     2.8498    -6.8914 O.2     
  17 N17           -1.5374     4.4822    -7.2512 N.am    
  18 C18           -2.8772     5.0733    -7.2935 C.3     
  19 C19           -3.1057     5.7215    -8.6604 C.3     
  20 C20           -2.1543     6.8774    -8.8335 C.ar    
  21 C21           -0.9097     6.6696    -9.3980 C.ar    
  22 C22           -0.0370     7.7299    -9.5567 C.ar    
  23 C23           -0.4092     8.9980    -9.1515 C.ar    
  24 C24           -1.6542     9.2059    -8.5878 C.ar    
  25 C25           -2.5285     8.1465    -8.4330 C.ar    
  26 C26           -7.5278     3.6825    -7.4721 C.2     
  27 O27           -7.6133     4.7492    -8.0429 O.2     
  28 N28           -5.2191     4.3103    -7.0660 N.am    
  29 C29           -6.2215     3.2644    -6.8480 C.3     
  30 C30           -6.4187     3.0523    -5.3456 C.3     
  31 C31           -5.1264     2.5085    -4.7333 C.3     
  32 C32           -5.3237     2.2965    -3.2309 C.3     
  33 N33           -4.0862     1.7758    -2.6446 N.pl3   
  34 C34           -4.0240     1.5060    -1.2979 C.2     
  35 N35           -2.9230     1.0428    -0.7763 N.2     
  36 N36           -5.1230     1.7250    -0.5015 N.pl3   
  37 C37          -11.0085     2.5782    -7.3038 C.2     
  38 O38          -10.7806     1.8152    -6.3889 O.2     
  39 N39           -8.6013     2.8711    -7.3960 N.am    
  40 C40           -9.8713     3.2776    -8.0027 C.3     
  41 C41           -9.8730     2.8981    -9.4849 C.3     
  42 O42           -9.8314     1.4754    -9.6124 O.3     
  43 C43          -14.5635     2.0225    -7.9493 C.2     
  44 O44          -14.4877     2.4760    -9.0716 O.2     
  45 N45          -12.2789     2.8004    -7.6953 N.am    
  46 C46          -13.3844     2.1205    -7.0159 C.3     
  47 C47          -13.7841     2.9153    -5.7711 C.3     
  48 O48          -14.3064     4.1859    -6.1646 O.3     
  49 C49          -18.1181     1.2276    -7.6401 C.2     
  50 O50          -18.0704     1.2298    -6.4282 O.2     
  51 N51          -15.7021     1.4310    -7.5370 N.am    
  52 C52          -16.8483     1.3357    -8.4444 C.3     
  53 C53          -16.6973     0.0961    -9.3283 C.3     
  54 C54          -15.4760     0.2618   -10.2349 C.3     
  55 C55          -15.3251    -0.9779   -11.1189 C.3     
  56 N56          -14.1557    -0.8192   -11.9869 N.pl3   
  57 C57          -13.8184    -1.8135   -12.8744 C.2     
  58 N58          -14.5390    -2.8974   -12.9435 N.2     
  59 N59          -12.7210    -1.6646   -13.6891 N.pl3   
  60 C60          -21.5991     0.3327    -8.3073 C.2     
  61 O61          -21.3467    -0.0354    -9.4350 O.2     
  62 N62          -19.3068     1.1283    -8.2675 N.am    
  63 C63          -20.5412     1.0232    -7.4856 C.3     
  64 C64          -21.0247     2.4240    -7.1049 C.3     
  65 C65          -20.0068     3.0779    -6.1684 C.3     
  66 C66          -20.4831     4.4576    -5.7935 C.2     
  67 O67          -21.5293     4.8751    -6.2305 O.2     
  68 O68          -19.7450     5.2228    -4.9740 O.3     
  69 C69          -25.2185    -0.1355    -8.0983 C.2     
  70 O70          -25.3218     0.6420    -7.1733 O.2     
  71 N71          -22.8256     0.1241    -7.7890 N.am    
  72 C72          -23.8539    -0.5472    -8.5878 C.3     
  73 C73          -23.6984    -2.0629    -8.4496 C.3     
  74 C74          -22.3642    -2.4965    -9.0604 C.3     
  75 C75          -22.2087    -4.0123    -8.9223 C.3     
  76 C76          -20.8746    -4.4458    -9.5331 C.3     
  77 N77          -20.7252    -5.9012    -9.4004 N.3     
  78 C78          -28.6519    -1.3039    -8.5558 C.2     
  79 O79          -28.2929    -2.3041    -9.1403 O.2     
  80 N80          -26.3240    -0.6314    -8.6885 N.am    
  81 C81          -27.6505    -0.2313    -8.2127 C.3     
  82 C82          -28.0588     1.0813    -8.8845 C.3     
  83 C83          -27.1142     2.1986    -8.4370 C.3     
  84 C84          -27.5225     3.5112    -9.1088 C.3     
  85 N85          -26.6181     4.5811    -8.6803 N.pl3   
  86 C86          -26.7905     5.8591    -9.1569 C.2     
  87 N87          -25.9858     6.8109    -8.7756 N.2     
  88 N88          -27.8118     6.1331   -10.0355 N.pl3   
  89 C89          -32.2956    -1.5861    -8.6399 C.2     
  90 O90          -32.4478    -0.3985    -8.4467 O.2     
  91 N91          -29.9465    -1.1517    -8.2132 N.am    
  92 C92          -30.9200    -2.1944    -8.5467 C.3     
  93 C93          -30.9101    -3.2687    -7.4573 C.3     
  94 C94          -29.5513    -3.9719    -7.4468 C.3     
  95 C95          -29.5414    -5.0461    -6.3574 C.3     
  96 N96          -28.2404    -5.7195    -6.3474 N.pl3   
  97 C97          -27.9956    -6.7286    -5.4464 C.2     
  98 N98          -26.8380    -7.3277    -5.4374 N.2     
  99 N99          -28.9717    -7.1059    -4.5548 N.pl3   
 100 C100         -35.7311    -2.8298    -8.7577 C.2     
 101 O101         -35.3870    -3.9668    -8.5131 O.2     
 102 N102         -33.3567    -2.3618    -8.9379 N.am    
 103 C103         -34.6940    -1.7705    -9.0284 C.3     
 104 C104         -34.9044    -1.1976   -10.4314 C.3     
 105 O105         -34.8957    -2.2607   -11.3863 O.3     
 106 C106         -39.3467    -3.1568    -9.1856 C.2     
 107 O107         -39.4220    -2.1228    -9.8150 O.2     
 108 N108         -37.0409    -2.5137    -8.7873 N.am    
 109 C109         -38.0491    -3.5435    -8.5240 C.3     
 110 C110         -38.2646    -3.6722    -7.0148 C.3     
 111 C111         -42.4333    -2.6804    -8.6164 C.2     
 112 O112         -41.9202    -2.4501    -7.5419 O.2     
 113 N113         -40.4236    -3.9600    -9.0778 N.am    
 114 C114         -41.7130    -3.5342    -9.6279 C.3     
 115 C115         -42.5609    -4.7659    -9.9519 C.3     
 116 C116         -41.8911    -5.5648   -11.0401 C.2     
 117 O117         -40.8951    -5.1395   -11.5758 O.2     
 118 O118         -42.4010    -6.7487   -11.4142 O.3     
 119 C119         -45.8322    -1.4094    -8.1748 C.2     
 120 O120         -46.2627    -2.0841    -9.0861 O.2     
 121 N121         -43.6477    -2.1726    -8.9060 N.am    
 122 C122         -44.3480    -1.3425    -7.9227 C.3     
 123 C123         -43.8741     0.1068    -8.0488 C.3     
 124 C124         -44.1758     0.6212    -9.4578 C.3     
 125 C125         -43.8167     2.1058    -9.5464 C.3     
 126 C126         -42.3672     0.1747    -7.7928 C.3     
 127 C127         -48.7820     0.4591    -7.0928 C.2     
 128 O128         -48.1116     1.3155    -6.5561 O.2     
 129 N129         -46.6813    -0.7196    -7.3876 N.am    
 130 C130         -48.1242    -0.7846    -7.6327 C.3     
 131 C131         -48.7056    -2.0142    -6.9320 C.3     
 132 C132         -51.0472     1.6460    -5.2145 C.2     
 133 O133         -50.7518     0.6118    -4.6639 O.2     
 134 N134         -50.1153     0.6197    -7.2063 N.am    
 135 C135         -50.7548     1.8288    -6.6815 C.3     
 136 C136         -52.0624     2.0820    -7.4345 C.3     
 137 C137         -52.6673     3.4097    -6.9738 C.3     
 138 C138         -53.9071     3.7239    -7.8135 C.3     
 139 C139         -53.0456     0.9460    -7.1453 C.3     
 140 O140         -51.6359     2.6320    -4.5195 O.3     
 141 C141           6.5968     6.6296    -6.9167 C.2     
 142 O142           6.4410     7.7592    -6.5037 O.2     
 143 C143          24.9174     8.8900    -3.6862 C.3     
 144 C144          23.5146     9.4986    -3.6338 C.3     
 145 C145          22.4975     8.4814    -4.1551 C.3     
 146 C146          21.0948     9.0901    -4.1027 C.3     
 147 C147          20.0777     8.0729    -4.6239 C.3     
 148 C148          18.6749     8.6815    -4.5716 C.3     
 149 C149          17.6578     7.6643    -5.0928 C.3     
 150 C150          16.2551     8.2730    -5.0404 C.3     
 151 C151          15.2380     7.2558    -5.5617 C.3     
 152 C152          13.8353     7.8644    -5.5093 C.3     
 153 C153          12.8182     6.8472    -6.0305 C.3     
 154 C154          11.4154     7.4558    -5.9782 C.3     
 155 C155          10.3983     6.4386    -6.4994 C.3     
 156 C156           8.9956     7.0473    -6.4470 C.3     
 157 C157           7.9785     6.0301    -6.9682 C.3     
 158 H158           5.6590     5.0069    -7.6598 H       
 159 H159           4.1083     7.1403    -6.4061 H       
 160 H160           2.9411     7.7402    -8.5135 H       
 161 H161           5.9671     8.0130    -8.7825 H       
 162 H162           4.7312     9.0903    -9.4755 H       
 163 H163           4.9613     9.0182    -7.7119 H       
 164 H164           3.4376     5.7293    -9.7032 H       
 165 H165           1.6809     6.5666    -6.5015 H       
 166 H166           1.0631     3.9494    -7.6399 H       
 167 H167           0.1680     3.0844    -5.4678 H       
 168 H168           3.1214     3.8544    -5.4297 H       
 169 H169           2.3767     2.5489    -4.4761 H       
 170 H170           2.4292     2.4354    -6.2517 H       
 171 H171          -0.1815     5.2155    -4.3155 H       
 172 H172           0.9616     4.2269    -3.3752 H       
 173 H173           1.5618     5.5699    -4.3774 H       
 174 H174          -1.4150     3.5427    -7.4590 H       
 175 H175          -2.9655     5.8295    -6.5134 H       
 176 H176          -2.9302     4.9858    -9.4453 H       
 177 H177          -4.1320     6.0830    -8.7241 H       
 178 H178          -0.6190     5.6789    -9.7146 H       
 179 H179           0.9356     7.5674    -9.9971 H       
 180 H180           0.2729     9.8262    -9.2748 H       
 181 H181          -1.9448    10.1966    -8.2709 H       
 182 H182          -3.5026     8.3096    -7.9961 H       
 183 H183          -5.4990     5.2281    -7.2082 H       
 184 H184          -5.8817     2.3347    -7.3046 H       
 185 H185          -6.6723     4.0022    -4.8748 H       
 186 H186          -7.2265     2.3389    -5.1824 H       
 187 H187          -4.8729     1.5587    -5.2041 H       
 188 H188          -4.3187     3.2220    -4.8965 H       
 189 H189          -5.5772     3.2463    -2.7602 H       
 190 H190          -6.1314     1.5830    -3.0677 H       
 191 H191          -3.3108     1.6213    -3.2065 H       
 192 H192          -2.8791     0.8525     0.1739 H       
 193 H193          -5.9424     2.0698    -0.8897 H       
 194 H194          -5.0791     1.5347     0.4486 H       
 195 H195          -8.5330     2.0180    -6.9395 H       
 196 H196          -9.9924     4.3563    -7.9037 H       
 197 H197         -10.7790     3.2788    -9.9564 H       
 198 H198          -8.9999     3.3322    -9.9721 H       
 199 H199          -9.8300     1.1624   -10.5273 H       
 200 H200         -12.4611     3.4106    -8.4270 H       
 201 H201         -13.0695     1.1192    -6.7220 H       
 202 H202         -14.5451     2.3653    -5.2176 H       
 203 H203         -12.9093     3.0625    -5.1377 H       
 204 H204         -14.5807     4.7447    -5.4246 H       
 205 H205         -15.7627     1.0683    -6.6394 H       
 206 H206         -16.8902     2.2263    -9.0715 H       
 207 H207         -16.5663    -0.7847    -8.6997 H       
 208 H208         -17.5909    -0.0244    -9.9409 H       
 209 H209         -15.6070     1.1426   -10.8636 H       
 210 H210         -14.5825     0.3823    -9.6224 H       
 211 H211         -15.1941    -1.8586   -10.4902 H       
 212 H212         -16.2186    -1.0983   -11.7314 H       
 213 H213         -13.6194    -0.0126   -11.9355 H       
 214 H214         -14.3011    -3.5990   -13.5697 H       
 215 H215         -12.1847    -0.8580   -13.6376 H       
 216 H216         -12.4830    -2.3661   -14.3152 H       
 217 H217         -19.3450     1.1265    -9.2367 H       
 218 H218         -20.3501     0.4464    -6.5806 H       
 219 H219         -21.1309     3.0289    -8.0055 H       
 220 H220         -21.9882     2.3512    -6.6005 H       
 221 H221         -19.9007     2.4730    -5.2678 H       
 222 H222         -19.0433     3.1507    -6.6728 H       
 223 H223         -20.0915     6.1003    -4.7622 H       
 224 H224         -23.0274     0.4185    -6.8870 H       
 225 H225         -23.7429    -0.2645    -9.6346 H       
 226 H226         -23.7207    -2.3358    -7.3946 H       
 227 H227         -24.5157    -2.5611    -8.9711 H       
 228 H228         -22.3419    -2.2236   -10.1155 H       
 229 H229         -21.5469    -1.9983    -8.5390 H       
 230 H230         -22.2310    -4.2851    -7.8672 H       
 231 H231         -23.0260    -4.5104    -9.4437 H       
 232 H232         -20.8523    -4.1730   -10.5881 H       
 233 H233         -20.0573    -3.9477    -9.0116 H       
 234 H234         -19.8511    -6.2126    -9.7967 H       
 235 H235         -20.8071    -6.1867    -8.4361 H       
 236 H236         -26.2414    -1.2533    -9.4284 H       
 237 H237         -27.6223    -0.0929    -7.1319 H       
 238 H238         -28.0012     0.9686    -9.9671 H       
 239 H239         -29.0803     1.3331    -8.5993 H       
 240 H240         -27.1719     2.3113    -7.3544 H       
 241 H241         -26.0928     1.9468    -8.7222 H       
 242 H242         -27.4648     3.3985   -10.1914 H       
 243 H243         -28.5440     3.7630    -8.8236 H       
 244 H244         -25.8975     4.3877    -8.0603 H       
 245 H245         -26.1075     7.7126    -9.1119 H       
 246 H246         -28.4106     5.4247   -10.3193 H       
 247 H247         -27.9335     7.0347   -10.3718 H       
 248 H248         -30.2336    -0.3517    -7.7457 H       
 249 H249         -30.6564    -2.6449    -9.5036 H       
 250 H250         -31.0862    -2.8039    -6.4872 H       
 251 H251         -31.6950    -3.9977    -7.6588 H       
 252 H252         -29.3752    -4.4366    -8.4169 H       
 253 H253         -28.7665    -3.2429    -7.2453 H       
 254 H254         -29.7175    -4.5814    -5.3873 H       
 255 H255         -30.3263    -5.7752    -6.5589 H       
 256 H256         -27.5517    -5.4533    -6.9764 H       
 257 H257         -26.6653    -8.0397    -4.8017 H       
 258 H258         -29.8332    -6.6600    -4.5614 H       
 259 H259         -28.7990    -7.8179    -3.9190 H       
 260 H260         -33.2350    -3.3117    -9.0924 H       
 261 H261         -34.7890    -0.9724    -8.2921 H       
 262 H262         -35.8628    -0.6800   -10.4726 H       
 263 H263         -34.1024    -0.4961   -10.6615 H       
 264 H264         -35.0240    -1.9701   -12.2996 H       
 265 H265         -37.3161    -1.6043    -8.9828 H       
 266 H266         -37.7071    -4.4976    -8.9249 H       
 267 H267         -38.6066    -2.7181    -6.6139 H       
 268 H268         -39.0148    -4.4384    -6.8189 H       
 269 H269         -37.3261    -3.9519    -6.5363 H       
 270 H270         -40.3450    -4.8200    -8.6361 H       
 271 H271         -41.5472    -2.9576   -10.5379 H       
 272 H272         -42.6625    -5.3823    -9.0587 H       
 273 H273         -43.5479    -4.4490   -10.2889 H       
 274 H274         -41.9366    -7.2246   -12.1163 H       
 275 H275         -44.0581    -2.3567    -9.7654 H       
 276 H276         -44.1331    -1.7090    -6.9189 H       
 277 H277         -44.3951     0.7244    -7.3172 H       
 278 H278         -43.5860     0.0608   -10.1832 H       
 279 H279         -45.2363     0.4904    -9.6730 H       
 280 H280         -44.0316     2.4723   -10.5502 H       
 281 H281         -44.4065     2.6662    -8.8210 H       
 282 H282         -42.7562     2.2366    -9.3312 H       
 283 H283         -42.1523    -0.1918    -6.7890 H       
 284 H284         -41.8462    -0.4429    -8.5244 H       
 285 H285         -42.0296     1.2072    -7.8827 H       
 286 H286         -46.3370    -0.1800    -6.6587 H       
 287 H287         -48.3077    -0.8566    -8.7047 H       
 288 H288         -48.5220    -1.9423    -5.8600 H       
 289 H289         -49.7791    -2.0626    -7.1144 H       
 290 H290         -48.2298    -2.9138    -7.3225 H       
 291 H291         -50.6515    -0.0652    -7.6356 H       
 292 H292         -50.0875     2.6802    -6.8156 H       
 293 H293         -51.8625     2.1258    -8.5051 H       
 294 H294         -52.9491     3.3356    -5.9235 H       
 295 H295         -51.9332     4.2058    -7.0977 H       
 296 H296         -53.6253     3.7980    -8.8638 H       
 297 H297         -54.6412     2.9278    -7.6896 H       
 298 H298         -54.3380     4.6698    -7.4853 H       
 299 H299         -53.9772     1.1264    -7.6818 H       
 300 H300         -52.6147     0.0001    -7.4735 H       
 301 H301         -53.2455     0.9021    -6.0747 H       
 302 H302         -51.8033     2.4683    -3.5813 H       
 303 H303          24.9483     7.9945    -3.0655 H       
 304 H304          25.1612     8.6272    -4.7156 H       
 305 H305          25.6420     9.6147    -3.3149 H       
 306 H306          23.2708     9.7615    -2.6045 H       
 307 H307          23.4837    10.3941    -4.2546 H       
 308 H308          22.7414     8.2186    -5.1844 H       
 309 H309          22.5285     7.5860    -3.5344 H       
 310 H310          20.8510     9.3529    -3.0734 H       
 311 H311          21.0639     9.9856    -4.7234 H       
 312 H312          20.3215     7.8100    -5.6533 H       
 313 H313          20.1086     7.1774    -4.0032 H       
 314 H314          18.4311     8.9444    -3.5422 H       
 315 H315          18.6440     9.5770    -5.1923 H       
 316 H316          17.9017     7.4015    -6.1222 H       
 317 H317          17.6888     6.7688    -4.4721 H       
 318 H318          16.0113     8.5358    -4.0111 H       
 319 H319          16.2242     9.1684    -5.6611 H       
 320 H320          15.4818     6.9929    -6.5910 H       
 321 H321          15.2689     6.3603    -4.9409 H       
 322 H322          13.5914     8.1272    -4.4799 H       
 323 H323          13.8043     8.7599    -6.1300 H       
 324 H324          13.0620     6.5844    -7.0599 H       
 325 H325          12.8491     5.9517    -5.4098 H       
 326 H326          11.1716     7.7187    -4.9488 H       
 327 H327          11.3845     8.3513    -6.5989 H       
 328 H328          10.6421     6.1758    -7.5287 H       
 329 H329          10.4292     5.5432    -5.8787 H       
 330 H330           8.7517     7.3101    -5.4177 H       
 331 H331           8.9647     7.9428    -7.0677 H       
 332 H332           8.0094     5.1346    -6.3475 H       
 333 H333           8.2223     5.7672    -7.9976 H       
@<TRIPOS>BOND
   1    1    2 2
   2    1    4 1
   3    1   10 am
   4    3  141 am
   5    3    4 1
   6    3  158 1
   7    4    5 1
   8    4  159 1
   9    5    6 1
  10    5    7 1
  11    5  160 1
  12    6  161 1
  13    6  162 1
  14    6  163 1
  15    7  164 1
  16    8    9 2
  17    8   11 1
  18    8   17 am
  19   10   11 1
  20   10  165 1
  21   11   12 1
  22   11  166 1
  23   12   13 1
  24   12   14 1
  25   12  167 1
  26   13  168 1
  27   13  169 1
  28   13  170 1
  29   14  171 1
  30   14  172 1
  31   14  173 1
  32   15   16 2
  33   15   18 1
  34   15   28 am
  35   17   18 1
  36   17  174 1
  37   18   19 1
  38   18  175 1
  39   19   20 1
  40   19  176 1
  41   19  177 1
  42   20   21 ar
  43   20   25 ar
  44   21   22 ar
  45   21  178 1
  46   22   23 ar
  47   22  179 1
  48   23   24 ar
  49   23  180 1
  50   24   25 ar
  51   24  181 1
  52   25  182 1
  53   26   27 2
  54   26   29 1
  55   26   39 am
  56   28   29 1
  57   28  183 1
  58   29   30 1
  59   29  184 1
  60   30   31 1
  61   30  185 1
  62   30  186 1
  63   31   32 1
  64   31  187 1
  65   31  188 1
  66   32   33 1
  67   32  189 1
  68   32  190 1
  69   33   34 1
  70   33  191 1
  71   34   35 2
  72   34   36 1
  73   35  192 1
  74   36  193 1
  75   36  194 1
  76   37   38 2
  77   37   40 1
  78   37   45 am
  79   39   40 1
  80   39  195 1
  81   40   41 1
  82   40  196 1
  83   41   42 1
  84   41  197 1
  85   41  198 1
  86   42  199 1
  87   43   44 2
  88   43   46 1
  89   43   51 am
  90   45   46 1
  91   45  200 1
  92   46   47 1
  93   46  201 1
  94   47   48 1
  95   47  202 1
  96   47  203 1
  97   48  204 1
  98   49   50 2
  99   49   52 1
 100   49   62 am
 101   51   52 1
 102   51  205 1
 103   52   53 1
 104   52  206 1
 105   53   54 1
 106   53  207 1
 107   53  208 1
 108   54   55 1
 109   54  209 1
 110   54  210 1
 111   55   56 1
 112   55  211 1
 113   55  212 1
 114   56   57 1
 115   56  213 1
 116   57   58 2
 117   57   59 1
 118   58  214 1
 119   59  215 1
 120   59  216 1
 121   60   61 2
 122   60   63 1
 123   60   71 am
 124   62   63 1
 125   62  217 1
 126   63   64 1
 127   63  218 1
 128   64   65 1
 129   64  219 1
 130   64  220 1
 131   65   66 1
 132   65  221 1
 133   65  222 1
 134   66   67 2
 135   66   68 1
 136   68  223 1
 137   69   70 2
 138   69   72 1
 139   69   80 am
 140   71   72 1
 141   71  224 1
 142   72   73 1
 143   72  225 1
 144   73   74 1
 145   73  226 1
 146   73  227 1
 147   74   75 1
 148   74  228 1
 149   74  229 1
 150   75   76 1
 151   75  230 1
 152   75  231 1
 153   76   77 1
 154   76  232 1
 155   76  233 1
 156   77  234 1
 157   77  235 1
 158   78   79 2
 159   78   81 1
 160   78   91 am
 161   80   81 1
 162   80  236 1
 163   81   82 1
 164   81  237 1
 165   82   83 1
 166   82  238 1
 167   82  239 1
 168   83   84 1
 169   83  240 1
 170   83  241 1
 171   84   85 1
 172   84  242 1
 173   84  243 1
 174   85   86 1
 175   85  244 1
 176   86   87 2
 177   86   88 1
 178   87  245 1
 179   88  246 1
 180   88  247 1
 181   89   90 2
 182   89   92 1
 183   89  102 am
 184   91   92 1
 185   91  248 1
 186   92   93 1
 187   92  249 1
 188   93   94 1
 189   93  250 1
 190   93  251 1
 191   94   95 1
 192   94  252 1
 193   94  253 1
 194   95   96 1
 195   95  254 1
 196   95  255 1
 197   96   97 1
 198   96  256 1
 199   97   98 2
 200   97   99 1
 201   98  257 1
 202   99  258 1
 203   99  259 1
 204  100  101 2
 205  100  103 1
 206  100  108 am
 207  102  103 1
 208  102  260 1
 209  103  104 1
 210  103  261 1
 211  104  105 1
 212  104  262 1
 213  104  263 1
 214  105  264 1
 215  106  107 2
 216  106  109 1
 217  106  113 am
 218  108  109 1
 219  108  265 1
 220  109  110 1
 221  109  266 1
 222  110  267 1
 223  110  268 1
 224  110  269 1
 225  111  112 2
 226  111  114 1
 227  111  121 am
 228  113  114 1
 229  113  270 1
 230  114  115 1
 231  114  271 1
 232  115  116 1
 233  115  272 1
 234  115  273 1
 235  116  117 2
 236  116  118 1
 237  118  274 1
 238  119  120 2
 239  119  122 1
 240  119  129 am
 241  121  122 1
 242  121  275 1
 243  122  123 1
 244  122  276 1
 245  123  124 1
 246  123  126 1
 247  123  277 1
 248  124  125 1
 249  124  278 1
 250  124  279 1
 251  125  280 1
 252  125  281 1
 253  125  282 1
 254  126  283 1
 255  126  284 1
 256  126  285 1
 257  127  128 2
 258  127  130 1
 259  127  134 am
 260  129  130 1
 261  129  286 1
 262  130  131 1
 263  130  287 1
 264  131  288 1
 265  131  289 1
 266  131  290 1
 267  132  133 2
 268  132  135 1
 269  132  140 1
 270  134  135 1
 271  134  291 1
 272  135  136 1
 273  135  292 1
 274  136  137 1
 275  136  139 1
 276  136  293 1
 277  137  138 1
 278  137  294 1
 279  137  295 1
 280  138  296 1
 281  138  297 1
 282  138  298 1
 283  139  299 1
 284  139  300 1
 285  139  301 1
 286  140  302 1
 287  141  142 2
 288  141  157 1
 289  143  144 1
 290  143  303 1
 291  143  304 1
 292  143  305 1
 293  144  145 1
 294  144  306 1
 295  144  307 1
 296  145  146 1
 297  145  308 1
 298  145  309 1
 299  146  147 1
 300  146  310 1
 301  146  311 1
 302  147  148 1
 303  147  312 1
 304  147  313 1
 305  148  149 1
 306  148  314 1
 307  148  315 1
 308  149  150 1
 309  149  316 1
 310  149  317 1
 311  150  151 1
 312  150  318 1
 313  150  319 1
 314  151  152 1
 315  151  320 1
 316  151  321 1
 317  152  153 1
 318  152  322 1
 319  152  323 1
 320  153  154 1
 321  153  324 1
 322  153  325 1
 323  154  155 1
 324  154  326 1
 325  154  327 1
 326  155  156 1
 327  155  328 1
 328  155  329 1
 329  156  157 1
 330  156  330 1
 331  156  331 1
 332  157  332 1
 333  157  333 1

#	End of record

