#	Name: ASD03720002
#	Creating user name:	WinNT
#	Creation time:	15. 06. 2019 20:43

#	Modifying user name:	WinNT
#	Modification time:	15. 06. 2019 20:43

#	Program:	/corina/corina34_cracker 3.40 0067  02.08.2006

@<TRIPOS>MOLECULE
ASD03720002
  74   76    0    0    0
SMALL
NO_CHARGES


@<TRIPOS>ATOM
   1 C1            -0.0799     1.8597     0.3328 C.3     
   2 C2            -0.0912     0.3047     0.3268 C.3     
   3 C3             1.3664     2.2503     0.4054 C.2     
   4 C4            -0.9356     2.1598     1.5656 C.3     
   5 C5            -1.5537    -0.0332     0.5718 C.3     
   6 C6             0.5437    -0.1520    -0.9658 C.3     
   7 C7             1.8532     3.0062     1.3895 C.2     
   8 C8             2.2385     1.7216    -0.7244 C.3     
   9 C9            -2.0979     1.1354     1.4344 C.3     
  10 C10           -2.3106    -0.1114    -0.7555 C.3     
  11 C11            2.0351     0.2188    -0.9063 C.3     
  12 C12            3.2753     3.3564     1.4088 C.2     
  13 C13           -2.2494     1.2462    -1.4584 C.3     
  14 C14            3.7680     4.1214     2.4047 C.2     
  15 C15           -3.0433     1.1805    -2.7646 C.3     
  16 C16            2.9054     4.6253     3.4938 C.2     
  17 C17            5.2343     4.5006     2.4642 C.3     
  18 C18           -2.9820     2.5381    -3.4675 C.3     
  19 C19            3.4663     4.5491     4.8998 C.3     
  20 C20            1.6930     5.1230     3.2513 C.2     
  21 C21            5.7363     4.2646     3.8924 C.3     
  22 C22           -3.7760     2.4724    -4.7737 C.3     
  23 C23            4.9028     5.0814     4.8759 C.3     
  24 O24            3.4634     3.1917     5.3464 O.3     
  25 O25            7.1051     4.6640     3.9868 O.3     
  26 C26           -3.6123     3.7884    -5.5367 C.3     
  27 C27           -3.2534     1.3177    -5.6306 C.3     
  28 O28           -5.1584     2.2604    -4.4807 O.3     
  29 C29            0.7488    -0.2088     1.4979 C.3     
  30 C30           -3.7709    -0.4822    -0.4887 C.3     
  31 H31           -0.5408     2.2556    -0.5721 H       
  32 H32           -0.3691     1.9862     2.4805 H       
  33 H33           -1.3152     3.1810     1.5329 H       
  34 H34           -1.6390    -0.9762     1.1118 H       
  35 H35            0.4347    -1.2315    -1.0704 H       
  36 H36            0.0706     0.3518    -1.8087 H       
  37 H37            1.1991     3.3604     2.1725 H       
  38 H38            1.9764     2.2340    -1.6500 H       
  39 H39            3.2853     1.9165    -0.4910 H       
  40 H40           -2.3879     0.7700     2.4196 H       
  41 H41           -2.9517     1.5992     0.9404 H       
  42 H42           -1.8533    -0.8703    -1.3904 H       
  43 H43            2.4986    -0.3061    -0.0710 H       
  44 H44            2.5164    -0.0953    -1.8324 H       
  45 H45            3.9294     3.0023     0.6258 H       
  46 H46           -2.6785     2.0105    -0.8104 H       
  47 H47           -1.2110     1.4959    -1.6764 H       
  48 H48           -2.6142     0.4162    -3.4125 H       
  49 H49           -4.0817     0.9308    -2.5465 H       
  50 H50            5.8019     3.8824     1.7687 H       
  51 H51            5.3526     5.5520     2.2024 H       
  52 H52           -3.4111     3.3024    -2.8195 H       
  53 H53           -1.9437     2.7878    -3.6856 H       
  54 H54            2.8602     5.1581     5.5705 H       
  55 H55            1.3191     5.1652     2.2389 H       
  56 H56            1.0844     5.4841     4.0672 H       
  57 H57            5.6501     3.2058     4.1365 H       
  58 H58            4.8963     6.1279     4.5712 H       
  59 H59            5.3368     4.9978     5.8723 H       
  60 H60            2.5854     2.7870     5.3692 H       
  61 H61            7.6971     4.1827     3.3926 H       
  62 H62           -2.5578     3.9501    -5.7602 H       
  63 H63           -4.1779     3.7416    -6.4673 H       
  64 H64           -3.9846     4.6111    -4.9262 H       
  65 H65           -3.3700     0.3801    -5.0870 H       
  66 H66           -3.8190     1.2709    -6.5612 H       
  67 H67           -2.1988     1.4793    -5.8541 H       
  68 H68           -5.5568     2.9556    -3.9393 H       
  69 H69            0.2623     0.0545     2.4371 H       
  70 H70            0.8438    -1.2925     1.4293 H       
  71 H71            1.7389     0.2457     1.4617 H       
  72 H72           -4.2591     0.3295     0.0506 H       
  73 H73           -4.2826    -0.6480    -1.4367 H       
  74 H74           -3.8111    -1.3922     0.1100 H       
@<TRIPOS>BOND
   1    1    2 1
   2    1    3 1
   3    1    4 1
   4    1   31 1
   5    2    5 1
   6    2    6 1
   7    2   29 1
   8    3    7 2
   9    3    8 1
  10    4    9 1
  11    4   32 1
  12    4   33 1
  13    5   10 1
  14    5    9 1
  15    5   34 1
  16    6   11 1
  17    6   35 1
  18    6   36 1
  19    7   12 1
  20    7   37 1
  21    8   11 1
  22    8   38 1
  23    8   39 1
  24    9   40 1
  25    9   41 1
  26   10   13 1
  27   10   30 1
  28   10   42 1
  29   11   43 1
  30   11   44 1
  31   12   14 2
  32   12   45 1
  33   13   15 1
  34   13   46 1
  35   13   47 1
  36   14   16 1
  37   14   17 1
  38   15   18 1
  39   15   48 1
  40   15   49 1
  41   16   19 1
  42   16   20 2
  43   17   21 1
  44   17   50 1
  45   17   51 1
  46   18   22 1
  47   18   52 1
  48   18   53 1
  49   19   23 1
  50   19   24 1
  51   19   54 1
  52   20   55 1
  53   20   56 1
  54   21   25 1
  55   21   23 1
  56   21   57 1
  57   22   26 1
  58   22   27 1
  59   22   28 1
  60   23   58 1
  61   23   59 1
  62   24   60 1
  63   25   61 1
  64   26   62 1
  65   26   63 1
  66   26   64 1
  67   27   65 1
  68   27   66 1
  69   27   67 1
  70   28   68 1
  71   29   69 1
  72   29   70 1
  73   29   71 1
  74   30   72 1
  75   30   73 1
  76   30   74 1

#	End of record

