#	Name: ASD01915899
#	Creating user name:	WinNT
#	Creation time:	15. 06. 2019 20:06

#	Modifying user name:	WinNT
#	Modification time:	15. 06. 2019 20:06

#	Program:	/corina/corina34_cracker 3.40 0067  02.08.2006

@<TRIPOS>MOLECULE
ASD01915899
  39   42    0    0    0
SMALL
NO_CHARGES


@<TRIPOS>ATOM
   1 C1            -0.0167     1.3778     0.0096 C.2     
   2 C2             0.0021    -0.0041     0.0020 C.2     
   3 C3            -1.3061    -0.7781    -0.0014 C.3     
   4 C4            -2.3692     0.0496     0.7181 C.3     
   5 N5            -2.4010     1.4359     0.2673 N.am    
   6 C6            -1.2676     2.1378     0.0348 C.2     
   7 O7            -1.2873     3.3419    -0.1445 O.2     
   8 S8             1.6346     1.9576    -0.0030 S.3     
   9 C9             2.2093     0.3463    -0.0096 C.2     
  10 N10            1.2158    -0.4933    -0.0052 N.2     
  11 C11           -3.6399     2.0589     0.0692 C.ar    
  12 O12            3.5154    -0.0058    -0.0188 O.3     
  13 C13            4.4732     1.0548    -0.0227 C.3     
  14 C14            5.8643     0.4753    -0.0329 C.ar    
  15 C15            6.5118     0.2049    -1.2288 C.ar    
  16 C16            6.5294     0.2052     1.1533 C.ar    
  17 C17            7.8043    -0.3262     1.1047 C.ar    
  18 N18            8.3875    -0.5754    -0.0515 N.ar    
  19 C19            7.7872    -0.3264    -1.1989 C.ar    
  20 C20           -4.2503     2.7395     1.1131 C.ar    
  21 C21           -5.4725     3.3534     0.9159 C.ar    
  22 C22           -6.0893     3.2901    -0.3219 C.ar    
  23 C23           -5.4834     2.6114    -1.3662 C.ar    
  24 C24           -4.2575     2.0011    -1.1757 C.ar    
  25 F25           -7.2844     3.8910    -0.5114 F       
  26 F26           -3.6660     1.3390    -2.1941 F       
  27 H27           -1.6194    -0.9615    -1.0292 H       
  28 H28           -1.1701    -1.7277     0.5162 H       
  29 H29           -3.3459    -0.4008     0.5409 H       
  30 H30           -2.1645     0.0319     1.7886 H       
  31 H31            4.3296     1.6707    -0.9105 H       
  32 H32            4.3411     1.6669     0.8694 H       
  33 H33            6.0254     0.4066    -2.1717 H       
  34 H34            6.0573     0.4078     2.1033 H       
  35 H35            8.3291    -0.5394     2.0242 H       
  36 H36            8.2967    -0.5439    -2.1260 H       
  37 H37           -3.7706     2.7890     2.0794 H       
  38 H38           -5.9474     3.8830     1.7285 H       
  39 H39           -5.9666     2.5626    -2.3308 H       
@<TRIPOS>BOND
   1    1    2 2
   2    1    8 1
   3    1    6 1
   4    2    3 1
   5    2   10 1
   6    3    4 1
   7    3   27 1
   8    3   28 1
   9    4    5 1
  10    4   29 1
  11    4   30 1
  12    5    6 am
  13    5   11 1
  14    6    7 2
  15    8    9 1
  16    9   10 2
  17    9   12 1
  18   11   20 ar
  19   11   24 ar
  20   12   13 1
  21   13   14 1
  22   13   31 1
  23   13   32 1
  24   14   15 ar
  25   14   16 ar
  26   15   19 ar
  27   15   33 1
  28   16   17 ar
  29   16   34 1
  30   17   18 ar
  31   17   35 1
  32   18   19 ar
  33   19   36 1
  34   20   21 ar
  35   20   37 1
  36   21   22 ar
  37   21   38 1
  38   22   23 ar
  39   22   25 1
  40   23   24 ar
  41   23   39 1
  42   24   26 1

#	End of record

