#	Name: ASD01816759
#	Creating user name:	WinNT
#	Creation time:	15. 06. 2019 19:35

#	Modifying user name:	WinNT
#	Modification time:	15. 06. 2019 19:35

#	Program:	/corina/corina34_cracker 3.40 0067  02.08.2006

@<TRIPOS>MOLECULE
ASD01816759
  70   74    0    0    0
SMALL
NO_CHARGES


@<TRIPOS>ATOM
   1 C1            -0.3753     0.8036     0.2732 C.2     
   2 C2            -0.1507    -0.5615     0.1054 C.2     
   3 C3             1.1303    -1.0606     0.0400 C.2     
   4 C4             2.2308    -0.2005     0.1419 C.2     
   5 N5             1.9615     1.1468     0.3089 N.am    
   6 C6             0.6868     1.6278     0.3709 C.2     
   7 C7             3.5708    -0.5932     0.0887 C.2     
   8 C8             4.5849     0.3324     0.1996 C.2     
   9 C9             4.2900     1.6887     0.3679 C.2     
  10 C10            2.9386     2.0700     0.4191 C.2     
  11 C11            4.0622    -2.0090    -0.0880 C.3     
  12 O12            2.6476     3.2466     0.5652 O.2     
  13 C13            5.3565     2.6864     0.4870 C.2     
  14 O14            6.5180     2.3298     0.5598 O.2     
  15 N15            4.3286    -2.6028     1.2290 N.3     
  16 C16            4.4337    -4.0645     1.1356 C.3     
  17 C17            4.5653    -4.6585     2.5399 C.3     
  18 C18            5.8104    -4.0809     3.2185 C.3     
  19 C19            5.6979    -2.5544     3.2595 C.3     
  20 C20            5.5335    -2.0214     1.8344 C.3     
  21 C21            5.9124    -4.6163     4.6234 C.ar    
  22 N22            4.8676    -5.2013     5.1753 N.ar    
  23 C23            4.9107    -5.6845     6.4017 C.ar    
  24 C24            6.0639    -5.5927     7.1575 C.ar    
  25 C25            7.1835    -4.9840     6.6107 C.ar    
  26 C26            7.1020    -4.4935     5.3166 C.ar    
  27 C27            7.0094    -4.4654     2.4559 C.1     
  28 N28            7.9346    -4.7622     1.8674 N.1     
  29 C29            1.1935    -2.5571    -0.1429 C.3     
  30 N30            5.0515     3.9988     0.5161 N.am    
  31 C31            6.1214     4.9994     0.5317 C.3     
  32 C32            6.5725     5.2861    -0.9019 C.3     
  33 C33            5.6040     6.2895     1.1711 C.3     
  34 C34            6.7214     7.3344     1.1874 C.3     
  35 C35            7.1725     7.6211    -0.2462 C.3     
  36 C36            7.6900     6.3310    -0.8856 C.3     
  37 O37            5.1826     6.0217     2.5101 O.3     
  38 H38           -1.3790     1.1954     0.3286 H       
  39 H39           -0.9825    -1.2489     0.0237 H       
  40 H40            0.5237     2.6888     0.5019 H       
  41 H41            5.6111    -0.0078     0.1543 H       
  42 H42            3.3021    -2.5956    -0.6040 H       
  43 H43            4.9795    -2.0044    -0.6767 H       
  44 H44            3.5402    -4.4629     0.6550 H       
  45 H45            5.3115    -4.3286     0.5459 H       
  46 H46            3.6815    -4.4065     3.1259 H       
  47 H47            4.6590    -5.7422     2.4693 H       
  48 H48            4.8319    -2.2692     3.8569 H       
  49 H49            6.6008    -2.1347     3.7031 H       
  50 H50            6.4061    -2.2950     1.2414 H       
  51 H51            5.4388    -0.9358     1.8613 H       
  52 H52            4.0344    -6.1571     6.8203 H       
  53 H53            6.0927    -5.9897     8.1614 H       
  54 H54            8.0984    -4.8977     7.1780 H       
  55 H55            7.9546    -4.0138     4.8590 H       
  56 H56            0.1863    -2.9715    -0.0980 H       
  57 H57            1.6378    -2.7864    -1.1115 H       
  58 H58            1.8019    -2.9946     0.6486 H       
  59 H59            4.1234     4.2809     0.5267 H       
  60 H60            6.9647     4.6206     1.1091 H       
  61 H61            6.9412     4.3670    -1.3574 H       
  62 H62            5.7292     5.6649    -1.4793 H       
  63 H63            4.7606     6.6683     0.5937 H       
  64 H64            6.3528     8.2535     1.6430 H       
  65 H65            7.5647     6.9556     1.7648 H       
  66 H66            6.3292     7.9999    -0.8236 H       
  67 H67            7.9686     8.3656    -0.2346 H       
  68 H68            8.5333     5.9522    -0.3082 H       
  69 H69            8.0114     6.5353    -1.9069 H       
  70 H70            4.8419     6.7966     2.9776 H       
@<TRIPOS>BOND
   1    1    2 1
   2    1    6 2
   3    1   38 1
   4    2    3 2
   5    2   39 1
   6    3    4 1
   7    3   29 1
   8    4    5 1
   9    4    7 2
  10    5    6 1
  11    5   10 am
  12    6   40 1
  13    7    8 1
  14    7   11 1
  15    8    9 2
  16    8   41 1
  17    9   10 1
  18    9   13 1
  19   10   12 2
  20   11   15 1
  21   11   42 1
  22   11   43 1
  23   13   14 2
  24   13   30 am
  25   15   16 1
  26   15   20 1
  27   16   17 1
  28   16   44 1
  29   16   45 1
  30   17   18 1
  31   17   46 1
  32   17   47 1
  33   18   19 1
  34   18   21 1
  35   18   27 1
  36   19   20 1
  37   19   48 1
  38   19   49 1
  39   20   50 1
  40   20   51 1
  41   21   22 ar
  42   21   26 ar
  43   22   23 ar
  44   23   24 ar
  45   23   52 1
  46   24   25 ar
  47   24   53 1
  48   25   26 ar
  49   25   54 1
  50   26   55 1
  51   27   28 3
  52   29   56 1
  53   29   57 1
  54   29   58 1
  55   30   31 1
  56   30   59 1
  57   31   32 1
  58   31   33 1
  59   31   60 1
  60   32   36 1
  61   32   61 1
  62   32   62 1
  63   33   34 1
  64   33   37 1
  65   33   63 1
  66   34   35 1
  67   34   64 1
  68   34   65 1
  69   35   36 1
  70   35   66 1
  71   35   67 1
  72   36   68 1
  73   36   69 1
  74   37   70 1

#	End of record

