#	Name: ASD02560052
#	Creating user name:	WinNT
#	Creation time:	15. 06. 2019 20:24

#	Modifying user name:	WinNT
#	Modification time:	15. 06. 2019 20:24

#	Program:	/corina/corina34_cracker 3.40 0067  02.08.2006

@<TRIPOS>MOLECULE
ASD02560052
  41   43    0    0    0
SMALL
NO_CHARGES


@<TRIPOS>ATOM
   1 C1             1.5728     1.8223    -1.0453 C.ar    
   2 C2             1.4654     0.4777    -0.7424 C.ar    
   3 C3             2.5826    -0.2450    -0.3716 C.ar    
   4 C4             3.8263     0.3763    -0.2471 C.ar    
   5 C5             3.9154     1.7174    -0.4816 C.ar    
   6 C6             2.8135     2.4346    -0.9623 C.ar    
   7 C7             4.9758    -0.5361     0.1246 C.3     
   8 N8             5.9404     0.1345     0.9743 N.3     
   9 C9             6.7041     1.1903     0.3817 C.3     
  10 C10            6.0582     2.5422     0.5276 C.3     
  11 N11            4.9501     2.6923    -0.4062 N.am    
  12 C12            4.6214     3.7019    -1.2095 C.2     
  13 N13            3.2861     3.6705    -1.4014 N.am    
  14 S14            5.7056     4.8435    -1.8820 S.2     
  15 C15            8.0833     1.2304     1.0429 C.3     
  16 C16            6.8158    -0.8360     1.6449 C.3     
  17 C17            5.9744    -1.8456     2.3825 C.2     
  18 C18            6.1331    -3.1251     2.1505 C.2     
  19 Cl19          -0.0812    -0.3062    -0.8281 Cl      
  20 C20            7.0532    -3.5826     1.0481 C.3     
  21 C21            5.3957    -4.1395     2.9861 C.3     
  22 H22            0.7028     2.3868    -1.3467 H       
  23 H23            2.4927    -1.3032    -0.1754 H       
  24 H24            4.5831    -1.4062     0.6508 H       
  25 H25            5.4746    -0.8683    -0.7859 H       
  26 H26            6.8331     0.9764    -0.6793 H       
  27 H27            5.6860     2.6535     1.5460 H       
  28 H28            6.7996     3.3167     0.3313 H       
  29 H29            2.7485     4.3837    -1.7797 H       
  30 H30            8.6128     0.3005     0.8355 H       
  31 H31            8.6531     2.0697     0.6441 H       
  32 H32            7.9665     1.3496     2.1200 H       
  33 H33            7.4282    -1.3469     0.9020 H       
  34 H34            7.4614    -0.3151     2.3520 H       
  35 H35            5.2406    -1.5142     3.1023 H       
  36 H36            8.0733    -3.6416     1.4274 H       
  37 H37            6.7387    -4.5653     0.6968 H       
  38 H38            7.0129    -2.8717     0.2229 H       
  39 H39            4.7838    -3.6244     3.7267 H       
  40 H40            4.7559    -4.7439     2.3431 H       
  41 H41            6.1140    -4.7839     3.4930 H       
@<TRIPOS>BOND
   1    1    2 ar
   2    1    6 ar
   3    1   22 1
   4    2    3 ar
   5    2   19 1
   6    3    4 ar
   7    3   23 1
   8    4    5 ar
   9    4    7 1
  10    5    6 ar
  11    5   11 1
  12    6   13 1
  13    7    8 1
  14    7   24 1
  15    7   25 1
  16    8    9 1
  17    8   16 1
  18    9   10 1
  19    9   15 1
  20    9   26 1
  21   10   11 1
  22   10   27 1
  23   10   28 1
  24   11   12 am
  25   12   13 am
  26   12   14 2
  27   13   29 1
  28   15   30 1
  29   15   31 1
  30   15   32 1
  31   16   17 1
  32   16   33 1
  33   16   34 1
  34   17   18 2
  35   17   35 1
  36   18   20 1
  37   18   21 1
  38   20   36 1
  39   20   37 1
  40   20   38 1
  41   21   39 1
  42   21   40 1
  43   21   41 1

#	End of record

