#	Name: ASD03332208
#	Creating user name:	WinNT
#	Creation time:	15. 06. 2019 20:40

#	Modifying user name:	WinNT
#	Modification time:	15. 06. 2019 20:40

#	Program:	/corina/corina34_cracker 3.40 0067  02.08.2006

@<TRIPOS>MOLECULE
ASD03332208
  65   69    0    0    0
SMALL
NO_CHARGES


@<TRIPOS>ATOM
   1 C1            -0.0016     1.4737     0.1417 C.3     
   2 N2            -0.0493     0.0272    -0.1140 N.3     
   3 C3             0.1600    -0.2678    -1.5430 C.3     
   4 C4             1.3891     0.4765    -1.9971 C.2     
   5 N5             1.9585     1.4911    -1.2951 N.pl3   
   6 C6             1.4373     1.9819    -0.0161 C.3     
   7 C7             2.1288     0.2998    -3.1204 C.2     
   8 N8             3.1381     1.2001    -3.0929 N.2     
   9 C9             3.0408     1.9186    -1.9967 C.2     
  10 C10            3.9556     3.0097    -1.5945 C.ar    
  11 C11            1.8781    -0.6937    -4.1795 C.2     
  12 O12            0.9322    -1.4529    -4.0896 O.2     
  13 C13            4.8344     3.5656    -2.5247 C.ar    
  14 C14           -1.3129    -0.5504     0.3632 C.3     
  15 N15            2.6971    -0.7611    -5.2478 N.am    
  16 C16            2.4478    -1.7487    -6.3007 C.3     
  17 C17            3.7380    -2.0568    -7.0160 C.2     
  18 C18            5.6847     4.5832    -2.1435 C.ar    
  19 C19            5.6673     5.0521    -0.8420 C.ar    
  20 C20            4.7986     4.5047     0.0851 C.ar    
  21 C21            3.9390     3.4909    -0.2851 C.ar    
  22 C22            1.4334    -1.1858    -7.2982 C.3     
  23 C23            1.9891     0.0958    -7.9223 C.3     
  24 C24            1.1731    -2.2173    -8.3978 C.3     
  25 C25            0.1236    -0.8731    -6.5719 C.3     
  26 N26            4.1834    -3.2451    -7.3461 N.2     
  27 C27            5.3606    -3.0325    -7.9609 C.2     
  28 N28            5.5671    -1.7497    -7.9732 N.2     
  29 O29            4.6439    -1.1706    -7.4404 O.3     
  30 C30            6.2728    -4.0883    -8.5305 C.3     
  31 C31           -1.3695    -2.0328    -0.0110 C.3     
  32 C32           -2.5648    -2.8437     0.4936 C.3     
  33 C33           -2.4619    -2.4737    -0.9874 C.3     
  34 H34           -0.6478     1.9888    -0.5690 H       
  35 H35           -0.3474     1.6740     1.1558 H       
  36 H36            0.3063    -1.3392    -1.6804 H       
  37 H37           -0.7047     0.0633    -2.1181 H       
  38 H38            1.4451     3.0718    -0.0098 H       
  39 H39            2.0523     1.6044     0.8008 H       
  40 H40            4.8494     3.2000    -3.5408 H       
  41 H41           -1.3735    -0.4466     1.4466 H       
  42 H42           -2.1494    -0.0266    -0.0994 H       
  43 H43            3.4515    -0.1556    -5.3195 H       
  44 H44            2.0520    -2.6618    -5.8560 H       
  45 H45            6.3654     5.0144    -2.8626 H       
  46 H46            6.3351     5.8485    -0.5485 H       
  47 H47            4.7903     4.8745     1.0998 H       
  48 H48            3.2612     3.0644     0.4395 H       
  49 H49            2.9222    -0.1270    -8.4397 H       
  50 H50            1.2664     0.4968    -8.6330 H       
  51 H51            2.1745     0.8306    -7.1389 H       
  52 H52            0.7773    -3.1304    -7.9532 H       
  53 H53            0.4504    -1.8163    -9.1084 H       
  54 H54            2.1063    -2.4401    -8.9152 H       
  55 H55            0.3090    -0.1382    -5.7885 H       
  56 H56           -0.5991    -0.4721    -7.2825 H       
  57 H57           -0.2723    -1.7862    -6.1273 H       
  58 H58            6.0083    -4.2738    -9.5715 H       
  59 H59            7.3058    -3.7450    -8.4737 H       
  60 H60            6.1641    -5.0096    -7.9582 H       
  61 H61           -0.4064    -2.5398    -0.0704 H       
  62 H62           -2.3882    -3.8842     0.7659 H       
  63 H63           -3.3108    -2.3210     1.0923 H       
  64 H64           -3.1402    -1.7076    -1.3631 H       
  65 H65           -2.2175    -3.2709    -1.6895 H       
@<TRIPOS>BOND
   1    1    2 1
   2    1    6 1
   3    1   34 1
   4    1   35 1
   5    2    3 1
   6    2   14 1
   7    3    4 1
   8    3   36 1
   9    3   37 1
  10    4    5 1
  11    4    7 2
  12    5    6 1
  13    5    9 1
  14    6   38 1
  15    6   39 1
  16    7    8 1
  17    7   11 1
  18    8    9 2
  19    9   10 1
  20   10   13 ar
  21   10   21 ar
  22   11   12 2
  23   11   15 am
  24   13   18 ar
  25   13   40 1
  26   14   31 1
  27   14   41 1
  28   14   42 1
  29   15   16 1
  30   15   43 1
  31   16   17 1
  32   16   22 1
  33   16   44 1
  34   17   26 2
  35   17   29 1
  36   18   19 ar
  37   18   45 1
  38   19   20 ar
  39   19   46 1
  40   20   21 ar
  41   20   47 1
  42   21   48 1
  43   22   23 1
  44   22   24 1
  45   22   25 1
  46   23   49 1
  47   23   50 1
  48   23   51 1
  49   24   52 1
  50   24   53 1
  51   24   54 1
  52   25   55 1
  53   25   56 1
  54   25   57 1
  55   26   27 1
  56   27   28 2
  57   27   30 1
  58   28   29 1
  59   30   58 1
  60   30   59 1
  61   30   60 1
  62   31   32 1
  63   31   33 1
  64   31   61 1
  65   32   33 1
  66   32   62 1
  67   32   63 1
  68   33   64 1
  69   33   65 1

#	End of record

