#	Name: ASD01917538
#	Creating user name:	WinNT
#	Creation time:	15. 06. 2019 20:09

#	Modifying user name:	WinNT
#	Modification time:	15. 06. 2019 20:09

#	Program:	/corina/corina34_cracker 3.40 0067  02.08.2006

@<TRIPOS>MOLECULE
ASD01917538
  41   44    0    0    0
SMALL
NO_CHARGES


@<TRIPOS>ATOM
   1 C1            -0.0167     1.3791     0.0096 C.ar    
   2 C2             0.0021    -0.0041     0.0020 C.ar    
   3 C3             1.2303    -0.6507    -0.0132 C.ar    
   4 C4             2.3931     0.0986    -0.0203 C.ar    
   5 N5             2.3503     1.4147    -0.0128 N.ar    
   6 C6             1.1954     2.0738     0.0018 C.ar    
   7 C7             1.1941     3.5058     0.0095 C.1     
   8 C8             1.1930     4.6798     0.0158 C.1     
   9 C9             1.1917     6.1117     0.0235 C.ar    
  10 C10           -0.0157     6.8235     0.0447 C.ar    
  11 C11            2.3938     6.8236     0.0158 C.ar    
  12 N12            2.3917     8.1404     0.0229 N.ar    
  13 C13            1.2706     8.8355     0.0373 C.ar    
  14 C14            0.0386     8.2056     0.0513 C.ar    
  15 C15           -1.2311     9.0171     0.0729 C.3     
  16 C16           -1.2371    11.3050     0.0520 C.2     
  17 N17           -1.0435    10.2492     0.8542 N.am    
  18 C18           -1.5716     9.5272    -1.3406 C.3     
  19 O19           -1.5405    10.9779    -1.2091 O.3     
  20 C20           -2.9449     9.0634    -1.7530 C.ar    
  21 C21           -4.0599     9.7929    -1.3844 C.ar    
  22 C22           -3.0883     7.9119    -2.5045 C.ar    
  23 C23           -4.3471     7.4859    -2.8836 C.ar    
  24 C24           -5.4649     8.2126    -2.5102 C.ar    
  25 C25           -5.3197     9.3685    -1.7620 C.ar    
  26 O26           -1.1457    12.4545     0.4352 O.2     
  27 F27           -6.6960     7.7973    -2.8807 F       
  28 H28           -0.9548     1.9142     0.0170 H       
  29 H29           -0.9187    -0.5685     0.0081 H       
  30 H30            1.2777    -1.7297    -0.0191 H       
  31 H31            3.3496    -0.4029    -0.0317 H       
  32 H32           -0.9637     6.3063     0.0552 H       
  33 H33            3.3324     6.2895     0.0044 H       
  34 H34            1.3151     9.9146     0.0430 H       
  35 H35           -2.0544     8.4272     0.4758 H       
  36 H36           -0.8169    10.2907     1.7965 H       
  37 H37           -0.8227     9.1925    -2.0584 H       
  38 H38           -3.9463    10.6945    -0.8008 H       
  39 H39           -2.2162     7.3453    -2.7957 H       
  40 H40           -4.4588     6.5867    -3.4713 H       
  41 H41           -6.1906     9.9383    -1.4736 H       
@<TRIPOS>BOND
   1    1    2 ar
   2    1    6 ar
   3    1   28 1
   4    2    3 ar
   5    2   29 1
   6    3    4 ar
   7    3   30 1
   8    4    5 ar
   9    4   31 1
  10    5    6 ar
  11    6    7 1
  12    7    8 3
  13    8    9 1
  14    9   11 ar
  15    9   10 ar
  16   10   14 ar
  17   10   32 1
  18   11   12 ar
  19   11   33 1
  20   12   13 ar
  21   13   14 ar
  22   13   34 1
  23   14   15 1
  24   15   18 1
  25   15   17 1
  26   15   35 1
  27   16   17 am
  28   16   19 1
  29   16   26 2
  30   17   36 1
  31   18   19 1
  32   18   20 1
  33   18   37 1
  34   20   22 ar
  35   20   21 ar
  36   21   25 ar
  37   21   38 1
  38   22   23 ar
  39   22   39 1
  40   23   24 ar
  41   23   40 1
  42   24   25 ar
  43   24   27 1
  44   25   41 1

#	End of record

