#	Name: ASD08170382
#	Creating user name:	WinNT
#	Creation time:	15. 06. 2019 21:17

#	Modifying user name:	WinNT
#	Modification time:	15. 06. 2019 21:17

#	Program:	/corina/corina34_cracker 3.40 0067  02.08.2006

@<TRIPOS>MOLECULE
ASD08170382
  62   65    0    0    0
SMALL
NO_CHARGES


@<TRIPOS>ATOM
   1 C1            -0.0155     1.2910     0.0091 C.2     
   2 N2             0.0021    -0.0041     0.0020 N.2     
   3 N3            -1.1192    -0.5842     0.0096 N.2     
   4 C4            -2.1834     0.1604     0.0237 C.2     
   5 S5            -1.7028     1.8047     0.0357 S.3     
   6 N6            -3.4954    -0.3008     0.0334 N.am    
   7 C7            -3.7441    -1.6254     0.0287 C.2     
   8 C8            -5.1658    -2.1251     0.0391 C.3     
   9 O9            -2.8238    -2.4152     0.0161 O.2     
  10 C10            1.1892     2.1964     0.0025 C.3     
  11 C11            1.5828     2.5110    -1.4422 C.3     
  12 C12            2.8059     3.4301    -1.4489 C.3     
  13 C13            3.1995     3.7447    -2.8935 C.3     
  14 C14            4.4042     4.6501    -2.9002 C.2     
  15 N15            5.6432     4.2729    -2.9149 N.2     
  16 S16            4.3802     6.4139    -2.8969 S.3     
  17 C17            6.0933     6.4179    -2.9086 C.2     
  18 N18            6.5124     5.1885    -2.9181 N.2     
  19 N19            6.9013     7.5498    -2.9129 N.am    
  20 C20            8.2427     7.4202    -2.9221 C.2     
  21 C21            9.1183     8.6468    -2.9267 C.3     
  22 O22            8.7453     6.3164    -2.9268 O.2     
  23 C23           10.5665     8.2302    -2.9371 C.ar    
  24 C24           11.2223     8.0406    -4.1390 C.ar    
  25 C25           11.2401     8.0435    -1.7447 C.ar    
  26 C26           12.5707     7.6612    -1.7545 C.ar    
  27 C27           13.2251     7.4664    -2.9592 C.ar    
  28 C28           12.5510     7.6584    -4.1500 C.ar    
  29 F29           13.2302     7.4788    -0.5896 F       
  30 C30           -5.1687    -3.6551     0.0311 C.3     
  31 O31           -4.5876    -4.1588     1.2472 O.3     
  32 C32           -6.5901    -4.1743     0.0062 C.2     
  33 O33           -6.7760    -4.8857     1.1352 O.3     
  34 C34           -5.4562    -5.2334     1.6498 C.3     
  35 O35           -7.4066    -3.9856    -0.8642 O.2     
  36 C36           -4.9817    -6.5538     1.0395 C.3     
  37 C37           -5.4946    -5.3388     3.1757 C.3     
  38 H38           -4.2314     0.3309     0.0435 H       
  39 H39           -5.6707    -1.7656     0.9357 H       
  40 H40           -5.6871    -1.7562    -0.8442 H       
  41 H41            0.9501     3.1232     0.5240 H       
  42 H42            2.0193     1.7002     0.5054 H       
  43 H43            1.8219     1.5842    -1.9637 H       
  44 H44            0.7527     3.0071    -1.9450 H       
  45 H45            2.5668     4.3569    -0.9274 H       
  46 H46            3.6360     2.9340    -0.9460 H       
  47 H47            3.4386     2.8179    -3.4151 H       
  48 H48            2.3694     4.2409    -3.3964 H       
  49 H49            6.4993     8.4326    -2.9091 H       
  50 H50            8.9051     9.2420    -3.8146 H       
  51 H51            8.9172     9.2401    -2.0347 H       
  52 H52           10.6962     8.1907    -5.0702 H       
  53 H53           10.7288     8.1960    -0.8057 H       
  54 H54           14.2631     7.1682    -2.9681 H       
  55 H55           13.0611     7.5061    -5.0897 H       
  56 H56           -4.6162    -4.0271    -0.8317 H       
  57 H57           -4.9515    -6.4620    -0.0462 H       
  58 H58           -3.9847    -6.7887     1.4121 H       
  59 H59           -5.6708    -7.3511     1.3177 H       
  60 H60           -6.1871    -6.1281     3.4681 H       
  61 H61           -4.4977    -5.5735     3.5489 H       
  62 H62           -5.8263    -4.3899     3.5972 H       
@<TRIPOS>BOND
   1    1    2 2
   2    1   10 1
   3    1    5 1
   4    2    3 1
   5    3    4 2
   6    4    5 1
   7    4    6 1
   8    6    7 am
   9    6   38 1
  10    7    8 1
  11    7    9 2
  12    8   30 1
  13    8   39 1
  14    8   40 1
  15   10   11 1
  16   10   41 1
  17   10   42 1
  18   11   12 1
  19   11   43 1
  20   11   44 1
  21   12   13 1
  22   12   45 1
  23   12   46 1
  24   13   14 1
  25   13   47 1
  26   13   48 1
  27   14   15 2
  28   14   16 1
  29   15   18 1
  30   16   17 1
  31   17   18 2
  32   17   19 1
  33   19   20 am
  34   19   49 1
  35   20   21 1
  36   20   22 2
  37   21   23 1
  38   21   50 1
  39   21   51 1
  40   23   24 ar
  41   23   25 ar
  42   24   28 ar
  43   24   52 1
  44   25   26 ar
  45   25   53 1
  46   26   27 ar
  47   26   29 1
  48   27   28 ar
  49   27   54 1
  50   28   55 1
  51   30   31 1
  52   30   32 1
  53   30   56 1
  54   31   34 1
  55   32   33 1
  56   32   35 2
  57   33   34 1
  58   34   36 1
  59   34   37 1
  60   36   57 1
  61   36   58 1
  62   36   59 1
  63   37   60 1
  64   37   61 1
  65   37   62 1

#	End of record

