#	Name: ASD03240312
#	Creating user name:	WinNT
#	Creation time:	15. 06. 2019 20:34

#	Modifying user name:	WinNT
#	Modification time:	15. 06. 2019 20:34

#	Program:	/corina/corina34_cracker 3.40 0067  02.08.2006

@<TRIPOS>MOLECULE
ASD03240312
 106  111    0    0    0
SMALL
NO_CHARGES


@<TRIPOS>ATOM
   1 C1             0.4017     2.6217     1.9822 C.2     
   2 N2             0.6370     1.8756     3.1128 N.pl3   
   3 O3            -3.2562     4.1509     1.4826 O.2     
   4 C4            -2.5201     4.4439     0.5644 C.2     
   5 C5            -1.0916     3.9637     0.5611 C.3     
   6 N6            -0.8409     3.1687     1.7659 N.pl3   
   7 N7             1.3582     2.8148     1.1182 N.2     
   8 N8            -2.9795     5.1990    -0.4531 N.am    
   9 C9            -4.3264     5.5490    -0.5075 C.ar    
  10 C10           -4.7065     6.7948    -1.0272 C.ar    
  11 C11           -6.0506     7.1402    -1.0798 C.ar    
  12 C12           -7.0151     6.2452    -0.6151 C.ar    
  13 C13           -6.6266     5.0054    -0.0986 C.ar    
  14 C14           -5.2935     4.6615    -0.0522 C.ar    
  15 C15           -8.4450     6.6074    -0.6683 C.2     
  16 N16           -9.3763     5.7429    -0.2194 N.am    
  17 O17           -8.7827     7.6860    -1.1171 O.2     
  18 C18          -10.7204     6.1322    -0.1553 C.ar    
  19 C19          -11.7245     5.1757    -0.2279 C.ar    
  20 C20          -11.0485     7.4741    -0.0134 C.ar    
  21 C21          -12.3732     7.8579     0.0502 C.ar    
  22 C22          -13.3777     6.9018    -0.0278 C.ar    
  23 C23          -13.0493     5.5593    -0.1648 C.ar    
  24 N24          -14.7200     7.2906     0.0371 N.pl3   
  25 C25          -15.7794     6.2821    -0.0452 C.3     
  26 C26          -15.0662     8.7062     0.1872 C.3     
  27 C27           -3.6762     7.7408    -1.5187 C.ar    
  28 C28           -3.8094     8.3244    -2.7784 C.ar    
  29 C29           -2.8521     9.2033    -3.2350 C.ar    
  30 C30           -1.7497     9.5095    -2.4377 C.ar    
  31 C31           -1.6164     8.9261    -1.1781 C.ar    
  32 C32           -2.5765     8.0516    -0.7190 C.ar    
  33 C33          -15.2116     9.3349    -1.1746 C.ar    
  34 C34          -16.1159     5.7930     1.3400 C.ar    
  35 C35          -16.4414     9.3395    -1.8060 C.ar    
  36 C36          -16.5748     9.9162    -3.0552 C.ar    
  37 C37          -15.4786    10.4887    -3.6728 C.ar    
  38 C38          -14.2490    10.4848    -3.0411 C.ar    
  39 C39          -14.1166     9.9120    -1.7900 C.ar    
  40 C40          -17.0968     6.4285     2.0781 C.ar    
  41 C41          -17.4055     5.9799     3.3487 C.ar    
  42 C42          -16.7336     4.8954     3.8809 C.ar    
  43 C43          -15.7533     4.2592     3.1424 C.ar    
  44 C44          -15.4477     4.7052     1.8702 C.ar    
  45 C45          -15.6238    11.1165    -5.0351 C.3     
  46 C46          -17.0694     4.4069     5.2664 C.3     
  47 C47          -17.5458     2.9548     5.1937 C.3     
  48 C48          -15.8250     4.4915     6.1526 C.3     
  49 C49          -15.2439    12.5965    -4.9577 C.3     
  50 C50          -14.7009    10.4042    -6.0260 C.3     
  51 C51           -0.7188    10.4555    -2.9295 C.ar    
  52 C52            0.3841    10.7634    -2.1348 C.ar    
  53 C53            1.3406    11.6440    -2.5979 C.ar    
  54 C54            1.2063    12.2206    -3.8481 C.ar    
  55 C55            0.1138    11.9186    -4.6411 C.ar    
  56 C56           -0.8462    11.0354    -4.1906 C.ar    
  57 H57            1.5148     1.4930     3.2674 H       
  58 H58           -0.0749     1.7318     3.7558 H       
  59 H59           -0.9168     3.3496    -0.3223 H       
  60 H60           -0.4198     4.8219     0.5459 H       
  61 H61           -1.5517     3.0282     2.4109 H       
  62 H62            1.1923     3.3412     0.3205 H       
  63 H63           -2.3721     5.4986    -1.1474 H       
  64 H64           -6.3484     8.0986    -1.4788 H       
  65 H65           -7.3740     4.3135     0.2607 H       
  66 H66           -4.9986     3.7024     0.3474 H       
  67 H67           -9.1159     4.8510     0.0594 H       
  68 H68          -11.4692     4.1317    -0.3342 H       
  69 H69          -10.2675     8.2174     0.0476 H       
  70 H70          -12.6283     8.9015     0.1609 H       
  71 H71          -13.8302     4.8158    -0.2254 H       
  72 H72          -16.6663     6.7231    -0.5002 H       
  73 H73          -15.4374     5.4446    -0.6531 H       
  74 H74          -16.0070     8.7945     0.7305 H       
  75 H75          -14.2777     9.2163     0.7406 H       
  76 H76           -4.6630     8.0870    -3.3961 H       
  77 H77           -2.9551     9.6549    -4.2106 H       
  78 H78           -0.7626     9.1633    -0.5607 H       
  79 H79           -2.4735     7.6000     0.2567 H       
  80 H80          -17.2978     8.8923    -1.3234 H       
  81 H81          -17.5354     9.9192    -3.5487 H       
  82 H82          -13.3925    10.9318    -3.5238 H       
  83 H83          -13.1560     9.9090    -1.2964 H       
  84 H84          -17.6217     7.2759     1.6623 H       
  85 H85          -18.1713     6.4769     3.9256 H       
  86 H86          -15.2282     3.4121     3.5584 H       
  87 H87          -14.6819     4.2082     1.2932 H       
  88 H88          -16.6571    11.0236    -5.3697 H       
  89 H89          -17.8593     5.0277     5.6891 H       
  90 H90          -16.7559     2.3339     4.7710 H       
  91 H91          -17.7887     2.6015     6.1958 H       
  92 H92          -18.4324     2.8945     4.5624 H       
  93 H93          -15.4855     5.5260     6.2044 H       
  94 H94          -16.0679     4.1382     7.1547 H       
  95 H95          -15.0350     3.8706     5.7299 H       
  96 H96          -14.2107    12.6894    -4.6231 H       
  97 H97          -15.3489    13.0506    -5.9430 H       
  98 H98          -15.9014    13.1040    -4.2518 H       
  99 H99          -14.9716     9.3497    -6.0811 H       
 100 H100         -14.8060    10.8583    -7.0113 H       
 101 H101         -13.6677    10.4970    -5.6914 H       
 102 H102           0.4898    10.3141    -1.1584 H       
 103 H103           2.1954    11.8836    -1.9829 H       
 104 H104           1.9570    12.9094    -4.2063 H       
 105 H105           0.0140    12.3717    -5.6164 H       
 106 H106          -1.6985    10.8001    -4.8107 H       
@<TRIPOS>BOND
   1    1    2 1
   2    1    7 2
   3    1    6 1
   4    2   57 1
   5    2   58 1
   6    3    4 2
   7    4    5 1
   8    4    8 am
   9    5    6 1
  10    5   59 1
  11    5   60 1
  12    6   61 1
  13    7   62 1
  14    8    9 1
  15    8   63 1
  16    9   10 ar
  17    9   14 ar
  18   10   11 ar
  19   10   27 1
  20   11   12 ar
  21   11   64 1
  22   12   13 ar
  23   12   15 1
  24   13   14 ar
  25   13   65 1
  26   14   66 1
  27   15   16 am
  28   15   17 2
  29   16   18 1
  30   16   67 1
  31   18   19 ar
  32   18   20 ar
  33   19   23 ar
  34   19   68 1
  35   20   21 ar
  36   20   69 1
  37   21   22 ar
  38   21   70 1
  39   22   23 ar
  40   22   24 1
  41   23   71 1
  42   24   25 1
  43   24   26 1
  44   25   34 1
  45   25   72 1
  46   25   73 1
  47   26   33 1
  48   26   74 1
  49   26   75 1
  50   27   28 ar
  51   27   32 ar
  52   28   29 ar
  53   28   76 1
  54   29   30 ar
  55   29   77 1
  56   30   31 ar
  57   30   51 1
  58   31   32 ar
  59   31   78 1
  60   32   79 1
  61   33   35 ar
  62   33   39 ar
  63   34   40 ar
  64   34   44 ar
  65   35   36 ar
  66   35   80 1
  67   36   37 ar
  68   36   81 1
  69   37   38 ar
  70   37   45 1
  71   38   39 ar
  72   38   82 1
  73   39   83 1
  74   40   41 ar
  75   40   84 1
  76   41   42 ar
  77   41   85 1
  78   42   43 ar
  79   42   46 1
  80   43   44 ar
  81   43   86 1
  82   44   87 1
  83   45   49 1
  84   45   50 1
  85   45   88 1
  86   46   47 1
  87   46   48 1
  88   46   89 1
  89   47   90 1
  90   47   91 1
  91   47   92 1
  92   48   93 1
  93   48   94 1
  94   48   95 1
  95   49   96 1
  96   49   97 1
  97   49   98 1
  98   50   99 1
  99   50  100 1
 100   50  101 1
 101   51   52 ar
 102   51   56 ar
 103   52   53 ar
 104   52  102 1
 105   53   54 ar
 106   53  103 1
 107   54   55 ar
 108   54  104 1
 109   55   56 ar
 110   55  105 1
 111   56  106 1

#	End of record

