#	Name: ASD03930236
#	Creating user name:	WinNT
#	Creation time:	15. 06. 2019 20:47

#	Modifying user name:	WinNT
#	Modification time:	15. 06. 2019 20:47

#	Program:	/corina/corina34_cracker 3.40 0067  02.08.2006

@<TRIPOS>MOLECULE
ASD03930236
  43   45    0    0    0
SMALL
NO_CHARGES


@<TRIPOS>ATOM
   1 C1            -0.0187     1.5258     0.0104 C.3     
   2 C2             0.0021    -0.0041     0.0020 C.3     
   3 C3             0.7309    -0.5033     1.2229 C.2     
   4 C4             2.0873    -0.7461     1.3005 C.2     
   5 C5             3.0510    -0.5746     0.2553 C.1     
   6 N6             3.8156    -0.4385    -0.5738 N.1     
   7 C7             2.3458    -1.2140     2.6668 C.2     
   8 C8             1.1120    -1.2147     3.3063 C.2     
   9 C9             0.8641    -1.6074     4.6931 C.2     
  10 O10           -0.3881    -1.5618     5.1938 O.3     
  11 O11            1.7870    -1.9753     5.3953 O.2     
  12 N12            0.1645    -0.7767     2.4091 N.pl3   
  13 C13           -1.2628    -0.6322     2.7059 C.3     
  14 C14            3.6501    -1.6049     3.2442 C.ar    
  15 C15            3.8734    -2.9270     3.6345 C.ar    
  16 C16            5.0879    -3.2900     4.1719 C.ar    
  17 C17            6.0951    -2.3374     4.3271 C.ar    
  18 C18            5.8729    -1.0165     3.9375 C.ar    
  19 C19            4.6611    -0.6532     3.3942 C.ar    
  20 C20            7.4024    -2.7290     4.9070 C.ar    
  21 C21            7.6295    -4.0493     5.2924 C.ar    
  22 C22            8.8482    -4.4080     5.8315 C.ar    
  23 C23            9.8434    -3.4602     5.9897 C.ar    
  24 C24            9.6237    -2.1486     5.6090 C.ar    
  25 C25            8.4110    -1.7796     5.0634 C.ar    
  26 H26            1.0039     1.9031     0.0027 H       
  27 H27           -0.5459     1.8868    -0.8726 H       
  28 H28           -0.5289     1.8773     0.9072 H       
  29 H29           -1.0205    -0.3814     0.0098 H       
  30 H30            0.5123    -0.3556    -0.8948 H       
  31 H31           -0.4526    -1.8397     6.1177 H       
  32 H32           -1.7774    -1.5659     2.4793 H       
  33 H33           -1.3920    -0.3930     3.7615 H       
  34 H34           -1.6810     0.1700     2.0979 H       
  35 H35            3.0935    -3.6645     3.5151 H       
  36 H36            5.2607    -4.3124     4.4738 H       
  37 H37            6.6530    -0.2795     4.0583 H       
  38 H38            4.4909     0.3684     3.0881 H       
  39 H39            6.8531    -4.7899     5.1697 H       
  40 H40            9.0252    -5.4304     6.1309 H       
  41 H41           10.7955    -3.7454     6.4124 H       
  42 H42           10.4042    -1.4128     5.7351 H       
  43 H43            8.2423    -0.7563     4.7620 H       
@<TRIPOS>BOND
   1    1    2 1
   2    1   26 1
   3    1   27 1
   4    1   28 1
   5    2    3 1
   6    2   29 1
   7    2   30 1
   8    3   12 1
   9    3    4 2
  10    4    5 1
  11    4    7 1
  12    5    6 3
  13    7    8 2
  14    7   14 1
  15    8    9 1
  16    8   12 1
  17    9   10 1
  18    9   11 2
  19   10   31 1
  20   12   13 1
  21   13   32 1
  22   13   33 1
  23   13   34 1
  24   14   19 ar
  25   14   15 ar
  26   15   16 ar
  27   15   35 1
  28   16   17 ar
  29   16   36 1
  30   17   18 ar
  31   17   20 1
  32   18   19 ar
  33   18   37 1
  34   19   38 1
  35   20   25 ar
  36   20   21 ar
  37   21   22 ar
  38   21   39 1
  39   22   23 ar
  40   22   40 1
  41   23   24 ar
  42   23   41 1
  43   24   25 ar
  44   24   42 1
  45   25   43 1

#	End of record

