#	Name: ASD01813673
#	Creating user name:	WinNT
#	Creation time:	15. 06. 2019 19:30

#	Modifying user name:	WinNT
#	Modification time:	15. 06. 2019 19:30

#	Program:	/corina/corina34_cracker 3.40 0067  02.08.2006

@<TRIPOS>MOLECULE
ASD01813673
  47   50    0    0    0
SMALL
NO_CHARGES


@<TRIPOS>ATOM
   1 C1             0.0987     1.4752     0.3556 C.ar    
   2 C2             0.0803     0.0889     0.3476 C.ar    
   3 C3             1.2503    -0.6314     0.2176 C.ar    
   4 C4             2.4681     0.0344     0.0920 C.ar    
   5 C5             2.4852     1.4397     0.0998 C.ar    
   6 C6             1.2931     2.1562     0.2326 C.ar    
   7 N7             3.6439    -0.6744    -0.0375 N.pl3   
   8 C8             4.8383    -0.0818    -0.1601 C.2     
   9 C9             4.9809     1.2911    -0.1654 C.2     
  10 C10            3.7794     2.1315    -0.0338 C.2     
  11 O11            3.8523     3.3479    -0.0334 O.2     
  12 C12            6.3099     1.9036    -0.3011 C.2     
  13 O13            6.4362     3.2458    -0.3049 O.3     
  14 O14            7.2952     1.2000    -0.4099 O.2     
  15 C15            3.5837    -2.1382    -0.0406 C.3     
  16 C16            3.4403    -2.6321    -1.4571 C.ar    
  17 C17            4.5557    -2.7793    -2.2615 C.ar    
  18 N18            4.4435    -3.2095    -3.5013 N.ar    
  19 C19            3.2649    -3.5179    -4.0266 C.ar    
  20 C20            2.0993    -3.3933    -3.2730 C.ar    
  21 C21            2.1884    -2.9489    -1.9651 C.ar    
  22 F22            1.2151    -1.9819     0.2125 F       
  23 F23            1.3092     3.5071     0.2397 F       
  24 C24            3.1871    -3.9985    -5.4273 C.ar    
  25 C25            4.3505    -4.1247    -6.1865 C.ar    
  26 C26            4.2794    -4.5709    -7.4873 C.ar    
  27 C27            3.0418    -4.8976    -8.0463 C.ar    
  28 C28            1.8775    -4.7714    -7.2851 C.ar    
  29 C29            1.9513    -4.3296    -5.9830 C.ar    
  30 C30            2.9642    -5.3762    -9.4424 C.2     
  31 O31            3.9778    -5.4855   -10.1046 O.2     
  32 N32            1.7698    -5.6913    -9.9813 N.am    
  33 H33           -0.8259     2.0246     0.4541 H       
  34 H34           -0.8601    -0.4332     0.4445 H       
  35 H35            5.7195    -0.6985    -0.2577 H       
  36 H36            7.3304     3.6023    -0.3966 H       
  37 H37            4.4990    -2.5404     0.3935 H       
  38 H38            2.7272    -2.4678     0.5476 H       
  39 H39            5.5320    -2.5378    -1.8677 H       
  40 H40            1.1404    -3.6440    -3.7021 H       
  41 H41            1.3025    -2.8423    -1.3566 H       
  42 H42            5.3073    -3.8720    -5.7541 H       
  43 H43            5.1802    -4.6678    -8.0751 H       
  44 H44            0.9200    -5.0234    -7.7166 H       
  45 H45            1.0511    -4.2319    -5.3943 H       
  46 H46            0.9611    -5.6041    -9.4529 H       
  47 H47            1.7189    -6.0054   -10.8977 H       
@<TRIPOS>BOND
   1    1    2 ar
   2    1    6 ar
   3    1   33 1
   4    2    3 ar
   5    2   34 1
   6    3   22 1
   7    3    4 ar
   8    4    5 ar
   9    4    7 1
  10    5    6 ar
  11    5   10 1
  12    6   23 1
  13    7    8 1
  14    7   15 1
  15    8    9 2
  16    8   35 1
  17    9   10 1
  18    9   12 1
  19   10   11 2
  20   12   13 1
  21   12   14 2
  22   13   36 1
  23   15   16 1
  24   15   37 1
  25   15   38 1
  26   16   17 ar
  27   16   21 ar
  28   17   18 ar
  29   17   39 1
  30   18   19 ar
  31   19   20 ar
  32   19   24 1
  33   20   21 ar
  34   20   40 1
  35   21   41 1
  36   24   25 ar
  37   24   29 ar
  38   25   26 ar
  39   25   42 1
  40   26   27 ar
  41   26   43 1
  42   27   28 ar
  43   27   30 1
  44   28   29 ar
  45   28   44 1
  46   29   45 1
  47   30   31 2
  48   30   32 am
  49   32   46 1
  50   32   47 1

#	End of record

