#	Name: ASD08150251
#	Creating user name:	WinNT
#	Creation time:	15. 06. 2019 21:15

#	Modifying user name:	WinNT
#	Modification time:	15. 06. 2019 21:15

#	Program:	/corina/corina34_cracker 3.40 0067  02.08.2006

@<TRIPOS>MOLECULE
ASD08150251
  53   57    0    0    0
SMALL
NO_CHARGES


@<TRIPOS>ATOM
   1 N1             0.0592     1.3415     0.1379 N.pl3   
   2 C2             0.0042    -0.1228     0.0575 C.3     
   3 N3             0.8837    -0.6049    -1.0079 N.am    
   4 C4             2.0285     0.0392    -1.3113 C.2     
   5 C5             2.3165     1.3388    -0.6797 C.ar    
   6 C6             3.5587     1.9555    -0.8084 C.ar    
   7 C7             3.7827     3.1702    -0.1942 C.ar    
   8 C8             2.7803     3.7813     0.5427 C.ar    
   9 C9             1.5389     3.1876     0.6671 C.ar    
  10 C10            1.2964     1.9702     0.0537 C.ar    
  11 O11            2.8166    -0.4483    -2.0988 O.2     
  12 C12            0.5310    -1.7537    -1.7234 C.ar    
  13 C13           -0.2435    -1.6481    -2.8717 C.ar    
  14 C14           -0.1674    -4.0265    -3.1385 C.ar    
  15 C15            0.9590    -3.0019    -1.2905 C.ar    
  16 C16           -0.5901    -2.7843    -3.5758 C.ar    
  17 C17            0.6088    -4.1345    -1.9994 C.ar    
  18 C18           -0.7054    -0.2951    -3.3483 C.3     
  19 C19            4.6513     1.2997    -1.6129 C.3     
  20 C20            0.4512    -0.7208     1.3930 C.3     
  21 N21           -1.4377     0.7304     4.0877 N.2     
  22 C22           -0.4102     0.7047     3.2903 C.2     
  23 N23           -0.5092    -0.3557     2.4373 N.pl3   
  24 C24           -1.6734    -1.0169     2.7367 C.ar    
  25 N25           -2.2888    -2.0938     2.2587 N.ar    
  26 C26           -3.4391    -2.4962     2.7743 C.ar    
  27 N27           -4.0280    -1.8570     3.7769 N.ar    
  28 C28           -3.4821    -0.7719     4.3145 C.ar    
  29 C29           -2.2595    -0.3084     3.7987 C.ar    
  30 N30           -4.1038    -0.1118     5.3595 N.pl3   
  31 N31           -4.0497    -3.6230     2.2489 N.pl3   
  32 H32           -0.7529     1.8613     0.2438 H       
  33 H33           -1.0193    -0.4347    -0.1505 H       
  34 H34            4.7464     3.6485    -0.2880 H       
  35 H35            2.9710     4.7295     1.0232 H       
  36 H36            0.7616     3.6705     1.2407 H       
  37 H37           -0.4404    -4.9137    -3.6906 H       
  38 H38            1.5652    -3.0869    -0.4008 H       
  39 H39           -1.1922    -2.7029    -4.4686 H       
  40 H40            0.9373    -5.1059    -1.6606 H       
  41 H41            0.0683     0.1544    -3.9708 H       
  42 H42           -1.6201    -0.4077    -3.9303 H       
  43 H43           -0.8984     0.3465    -2.4886 H       
  44 H44            4.5858     1.6282    -2.6502 H       
  45 H45            5.6219     1.5798    -1.2037 H       
  46 H46            4.5363     0.2167    -1.5668 H       
  47 H47            0.4993    -1.8063     1.3070 H       
  48 H48            1.4360    -0.3328     1.6533 H       
  49 H49            0.4011     1.4174     3.3015 H       
  50 H50           -4.9476    -0.4405     5.7073 H       
  51 H51           -3.6959     0.6797     5.7444 H       
  52 H52           -3.6337    -4.1027     1.5155 H       
  53 H53           -4.8932    -3.9325     2.6143 H       
@<TRIPOS>BOND
   1    1    2 1
   2    1   10 1
   3    1   32 1
   4    2    3 1
   5    2   20 1
   6    2   33 1
   7    3    4 am
   8    3   12 1
   9    4    5 1
  10    4   11 2
  11    5    6 ar
  12    5   10 ar
  13    6    7 ar
  14    6   19 1
  15    7    8 ar
  16    7   34 1
  17    8    9 ar
  18    8   35 1
  19    9   10 ar
  20    9   36 1
  21   12   13 ar
  22   12   15 ar
  23   13   16 ar
  24   13   18 1
  25   14   16 ar
  26   14   17 ar
  27   14   37 1
  28   15   17 ar
  29   15   38 1
  30   16   39 1
  31   17   40 1
  32   18   41 1
  33   18   42 1
  34   18   43 1
  35   19   44 1
  36   19   45 1
  37   19   46 1
  38   20   23 1
  39   20   47 1
  40   20   48 1
  41   21   22 2
  42   21   29 1
  43   22   23 1
  44   22   49 1
  45   23   24 1
  46   24   25 ar
  47   24   29 ar
  48   25   26 ar
  49   26   27 ar
  50   26   31 1
  51   27   28 ar
  52   28   29 ar
  53   28   30 1
  54   30   50 1
  55   30   51 1
  56   31   52 1
  57   31   53 1

#	End of record

