#	Name: ASD01140613
#	Creating user name:	WinNT
#	Creation time:	15. 06. 2019 19:01

#	Modifying user name:	WinNT
#	Modification time:	15. 06. 2019 19:01

#	Program:	/corina/corina34_cracker 3.40 0067  02.08.2006

@<TRIPOS>MOLECULE
ASD01140613
  32   34    0    0    0
SMALL
NO_CHARGES


@<TRIPOS>ATOM
   1 C1            -0.2542     0.8735     0.3198 C.ar    
   2 C2             0.0011    -0.4835     0.5822 C.ar    
   3 C3             1.2663    -0.9677     0.4607 C.ar    
   4 C4             2.3211    -0.1340     0.0774 C.ar    
   5 C5             2.1085     1.1895    -0.1851 C.ar    
   6 C6             0.8139     1.7209    -0.0690 C.ar    
   7 C7             0.5565     3.0778    -0.3316 C.ar    
   8 C8            -0.7107     3.5587    -0.2094 C.ar    
   9 C9            -1.7605     2.7256     0.1734 C.ar    
  10 C10           -1.5501     1.4057     0.4300 C.ar    
  11 O11            3.5747    -0.6471    -0.0349 O.3     
  12 C12            3.8355    -1.3857    -1.1253 C.2     
  13 C13            5.1643    -2.0832    -1.2627 C.3     
  14 O14            3.0049    -1.4913    -1.9964 O.2     
  15 C15            5.2027    -2.8386    -2.5661 C.ar    
  16 N16            5.6520    -2.2317    -3.6463 N.ar    
  17 C17            5.7004    -2.8632    -4.8082 C.ar    
  18 C18            5.2708    -4.1790    -4.8788 C.ar    
  19 C19            4.8050    -4.7833    -3.7217 C.ar    
  20 N20            4.7911    -4.0903    -2.5944 N.ar    
  21 H21           -0.8041    -1.1390     0.8795 H       
  22 H22            1.4588    -2.0109     0.6634 H       
  23 H23            2.9314     1.8238    -0.4800 H       
  24 H24            1.3603     3.7352    -0.6284 H       
  25 H25           -0.9057     4.6015    -0.4117 H       
  26 H26           -2.7568     3.1327     0.2636 H       
  27 H27           -2.3743     0.7713     0.7210 H       
  28 H28            5.9657    -1.3445    -1.2472 H       
  29 H29            5.2963    -2.7799    -0.4349 H       
  30 H30            6.0694    -2.3599    -5.6897 H       
  31 H31            5.2980    -4.7203    -5.8129 H       
  32 H32            4.4619    -5.8072    -3.7390 H       
@<TRIPOS>BOND
   1    1    2 ar
   2    1    6 ar
   3    1   10 ar
   4    2    3 ar
   5    2   21 1
   6    3    4 ar
   7    3   22 1
   8    4    5 ar
   9    4   11 1
  10    5    6 ar
  11    5   23 1
  12    6    7 ar
  13    7    8 ar
  14    7   24 1
  15    8    9 ar
  16    8   25 1
  17    9   10 ar
  18    9   26 1
  19   10   27 1
  20   11   12 1
  21   12   13 1
  22   12   14 2
  23   13   15 1
  24   13   28 1
  25   13   29 1
  26   15   16 ar
  27   15   20 ar
  28   16   17 ar
  29   17   18 ar
  30   17   30 1
  31   18   19 ar
  32   18   31 1
  33   19   20 ar
  34   19   32 1

#	End of record

