#	Name: ASD01883202
#	Creating user name:	WinNT
#	Creation time:	15. 06. 2019 19:46

#	Modifying user name:	WinNT
#	Modification time:	15. 06. 2019 19:46

#	Program:	/corina/corina34_cracker 3.40 0067  02.08.2006

@<TRIPOS>MOLECULE
ASD01883202
  48   50    0    0    0
SMALL
NO_CHARGES


@<TRIPOS>ATOM
   1 N1            -0.1427     1.3463    -1.2845 N.am    
   2 C2            -0.2601     0.0894    -1.7510 C.2     
   3 C3            -1.4622    -0.6316    -1.5447 C.2     
   4 C4            -2.5129    -0.0069    -0.8497 C.2     
   5 C5            -2.3283     1.3107    -0.3864 C.2     
   6 C6            -1.1560     1.9469    -0.6090 C.2     
   7 O7             0.6667    -0.4282    -2.3508 O.2     
   8 C8            -1.6044    -1.9696    -2.0347 C.1     
   9 N9            -1.7173    -3.0311    -2.4233 N.1     
  10 C10            1.1064     2.0795    -1.5048 C.3     
  11 C11            1.0218     2.8454    -2.8266 C.3     
  12 C12            2.3263     3.6111    -3.0567 C.3     
  13 C13            3.4758     2.6177    -3.2373 C.3     
  14 C14            2.1961     4.4744    -4.3132 C.3     
  15 C15           -3.7858    -0.7182    -0.6105 C.ar    
  16 C16           -4.1774    -1.0339     0.6929 C.ar    
  17 C17           -5.3648    -1.6966     0.9119 C.ar    
  18 C18           -6.1731    -2.0512    -0.1618 C.ar    
  19 C19           -5.7868    -1.7393    -1.4599 C.ar    
  20 C20           -4.6035    -1.0716    -1.6866 C.ar    
  21 O21           -7.3427    -2.7043     0.0581 O.3     
  22 C22           -7.3261    -4.0615     0.0498 C.ar    
  23 C23           -6.1272    -4.7603    -0.0702 C.ar    
  24 C24           -6.1525    -6.1398    -0.0745 C.ar    
  25 N25           -7.2925    -6.7956     0.0332 N.ar    
  26 C26           -8.4483    -6.1693     0.1487 C.ar    
  27 C27           -8.5068    -4.7910     0.1670 C.ar    
  28 H28           -3.1213     1.8110     0.1495 H       
  29 H29           -1.0258     2.9568    -0.2488 H       
  30 H30            1.2640     2.7826    -0.6869 H       
  31 H31            1.9382     1.3763    -1.5449 H       
  32 H32            0.8641     2.1423    -3.6445 H       
  33 H33            0.1900     3.5486    -2.7865 H       
  34 H34            2.5294     4.2494    -2.1968 H       
  35 H35            4.4051     3.1632    -3.4012 H       
  36 H36            3.5685     2.0027    -2.3422 H       
  37 H37            3.2726     1.9794    -4.0972 H       
  38 H38            1.3772     5.1822    -4.1845 H       
  39 H39            3.1254     5.0199    -4.4771 H       
  40 H40            1.9929     3.8361    -5.1731 H       
  41 H41           -3.5497    -0.7590     1.5276 H       
  42 H42           -5.6681    -1.9413     1.9191 H       
  43 H43           -6.4172    -2.0171    -2.2917 H       
  44 H44           -4.3042    -0.8293    -2.6956 H       
  45 H45           -5.1908    -4.2296    -0.1590 H       
  46 H46           -5.2276    -6.6898    -0.1675 H       
  47 H47           -9.3594    -6.7429     0.2341 H       
  48 H48           -9.4560    -4.2846     0.2617 H       
@<TRIPOS>BOND
   1    1    2 am
   2    1   10 1
   3    1    6 1
   4    2    3 1
   5    2    7 2
   6    3    4 2
   7    3    8 1
   8    4    5 1
   9    4   15 1
  10    5    6 2
  11    5   28 1
  12    6   29 1
  13    8    9 3
  14   10   11 1
  15   10   30 1
  16   10   31 1
  17   11   12 1
  18   11   32 1
  19   11   33 1
  20   12   13 1
  21   12   14 1
  22   12   34 1
  23   13   35 1
  24   13   36 1
  25   13   37 1
  26   14   38 1
  27   14   39 1
  28   14   40 1
  29   15   16 ar
  30   15   20 ar
  31   16   17 ar
  32   16   41 1
  33   17   18 ar
  34   17   42 1
  35   18   19 ar
  36   18   21 1
  37   19   20 ar
  38   19   43 1
  39   20   44 1
  40   21   22 1
  41   22   23 ar
  42   22   27 ar
  43   23   24 ar
  44   23   45 1
  45   24   25 ar
  46   24   46 1
  47   25   26 ar
  48   26   27 ar
  49   26   47 1
  50   27   48 1

#	End of record

