#	Name: ASD01810453
#	Creating user name:	WinNT
#	Creation time:	15. 06. 2019 19:24

#	Modifying user name:	WinNT
#	Modification time:	15. 06. 2019 19:24

#	Program:	/corina/corina34_cracker 3.40 0067  02.08.2006

@<TRIPOS>MOLECULE
ASD01810453
  23   23    0    0    0
SMALL
NO_CHARGES


@<TRIPOS>ATOM
   1 C1            -0.0097     1.4719     0.0883 C.2     
   2 C2             0.0061    -0.0047     0.0400 C.ar    
   3 C3             1.2140    -0.6878    -0.1185 C.ar    
   4 C4             1.2260    -2.0667    -0.1634 C.ar    
   5 C5             0.0452    -2.7771    -0.0519 C.ar    
   6 C6            -1.1623    -2.1072     0.1061 C.ar    
   7 C7            -1.1848    -0.7217     0.1582 C.ar    
   8 O8             1.0356     2.0905     0.0958 O.2     
   9 O9            -1.1834     2.1323     0.1184 O.3     
  10 C10            0.0673    -4.2831    -0.1024 C.3     
  11 C11            2.5041     0.0814    -0.2410 C.3     
  12 N12           -2.3528    -2.8299     0.2178 N.pl3   
  13 H13            2.1610    -2.5930    -0.2863 H       
  14 H14           -2.1214    -0.1993     0.2854 H       
  15 H15           -1.1432     3.0979     0.1496 H       
  16 H16            0.1886    -4.6787     0.9060 H       
  17 H17           -0.8695    -4.6463    -0.5250 H       
  18 H18            0.8989    -4.6136    -0.7248 H       
  19 H19            2.8688     0.3399     0.7531 H       
  20 H20            3.2459    -0.5325    -0.7520 H       
  21 H21            2.3307     0.9930    -0.8129 H       
  22 H22           -2.3366    -3.7992     0.1851 H       
  23 H23           -3.1954    -2.3623     0.3281 H       
@<TRIPOS>BOND
   1    1    2 1
   2    1    8 2
   3    1    9 1
   4    2    3 ar
   5    2    7 ar
   6    3    4 ar
   7    3   11 1
   8    4    5 ar
   9    4   13 1
  10    5    6 ar
  11    5   10 1
  12    6    7 ar
  13    6   12 1
  14    7   14 1
  15    9   15 1
  16   10   16 1
  17   10   17 1
  18   10   18 1
  19   11   19 1
  20   11   20 1
  21   11   21 1
  22   12   22 1
  23   12   23 1

#	End of record

