#	Name: ASD04880505
#	Creating user name:	WinNT
#	Creation time:	15. 06. 2019 20:53

#	Modifying user name:	WinNT
#	Modification time:	15. 06. 2019 20:53

#	Program:	/corina/corina34_cracker 3.40 0067  02.08.2006

@<TRIPOS>MOLECULE
ASD04880505
  53   56    0    0    0
SMALL
NO_CHARGES


@<TRIPOS>ATOM
   1 C1            -0.0144     1.2118     0.0087 C.2     
   2 O2             0.0436    -0.0026     0.0315 O.2     
   3 N3             1.1185     1.9396    -0.0483 N.am    
   4 N4             1.1860     3.3240    -0.1910 N.2     
   5 C5             2.3862     3.7923    -0.2195 C.2     
   6 C6             3.3749     2.6563    -0.0848 C.3     
   7 C7             2.4860     1.4027     0.0365 C.3     
   8 C8             2.7406     5.2161    -0.3619 C.ar    
   9 C9             1.7356     6.1803    -0.4790 C.ar    
  10 C10            2.0716     7.5099    -0.6115 C.ar    
  11 C11            3.4069     7.8927    -0.6292 C.ar    
  12 C12            4.4089     6.9381    -0.5132 C.ar    
  13 C13            4.0822     5.6064    -0.3745 C.ar    
  14 S14            0.8057     8.7266    -0.7592 S.o2    
  15 O15            1.1621     9.5442    -1.8653 O.2     
  16 O16           -0.4308     8.0317    -0.6729 O.2     
  17 N17            0.8944     9.6917     0.5836 N.am    
  18 C18            1.7390    10.8967     0.5959 C.3     
  19 C19            0.8921    12.0757     1.0885 C.3     
  20 O20            0.2701    11.7237     2.3266 O.3     
  21 C21           -0.6380    10.6234     2.2334 C.3     
  22 C22            0.1262     9.3731     1.7975 C.3     
  23 O23            3.7335     9.2047    -0.7609 O.3     
  24 C24            5.1252     9.5289    -0.7716 C.3     
  25 C25           -1.3275     1.8895     0.0373 C.ar    
  26 C26           -2.5036     1.1430    -0.0542 C.ar    
  27 C27           -3.7276     1.7832    -0.0263 C.ar    
  28 C28           -3.7879     3.1628     0.0922 C.ar    
  29 C29           -2.6252     3.9062     0.1827 C.ar    
  30 C30           -1.3969     3.2780     0.1618 C.ar    
  31 F31           -4.8674     1.0634    -0.1151 F       
  32 H32            4.0097     2.5950    -0.9687 H       
  33 H33            3.9796     2.7803     0.8136 H       
  34 H34            2.6453     0.9086     0.9949 H       
  35 H35            2.6801     0.7159    -0.7873 H       
  36 H36            0.6973     5.8835    -0.4660 H       
  37 H37            5.4457     7.2402    -0.5278 H       
  38 H38            4.8620     4.8651    -0.2802 H       
  39 H39            2.5841    10.7458     1.2676 H       
  40 H40            2.1019    11.1009    -0.4114 H       
  41 H41            1.5311    12.9462     1.2366 H       
  42 H42            0.1256    12.3074     0.3489 H       
  43 H43           -1.0997    10.4491     3.2053 H       
  44 H44           -1.4101    10.8499     1.4981 H       
  45 H45           -0.5784     8.5689     1.5856 H       
  46 H46            0.8061     9.0662     2.5922 H       
  47 H47            5.2464    10.6065    -0.8822 H       
  48 H48            5.5806     9.2063     0.1647 H       
  49 H49            5.6102     9.0212    -1.6054 H       
  50 H50           -2.4567     0.0680    -0.1469 H       
  51 H51           -4.7468     3.6593     0.1137 H       
  52 H52           -2.6790     4.9810     0.2746 H       
  53 H53           -0.4903     3.8602     0.2375 H       
@<TRIPOS>BOND
   1    1    2 2
   2    1    3 am
   3    1   25 1
   4    3    4 1
   5    3    7 1
   6    4    5 2
   7    5    6 1
   8    5    8 1
   9    6    7 1
  10    6   32 1
  11    6   33 1
  12    7   34 1
  13    7   35 1
  14    8    9 ar
  15    8   13 ar
  16    9   10 ar
  17    9   36 1
  18   10   11 ar
  19   10   14 1
  20   11   12 ar
  21   11   23 1
  22   12   13 ar
  23   12   37 1
  24   13   38 1
  25   14   15 2
  26   14   16 2
  27   14   17 am
  28   17   18 1
  29   17   22 1
  30   18   19 1
  31   18   39 1
  32   18   40 1
  33   19   20 1
  34   19   41 1
  35   19   42 1
  36   20   21 1
  37   21   22 1
  38   21   43 1
  39   21   44 1
  40   22   45 1
  41   22   46 1
  42   23   24 1
  43   24   47 1
  44   24   48 1
  45   24   49 1
  46   25   26 ar
  47   25   30 ar
  48   26   27 ar
  49   26   50 1
  50   27   28 ar
  51   27   31 1
  52   28   29 ar
  53   28   51 1
  54   29   30 ar
  55   29   52 1
  56   30   53 1

#	End of record

