#	Name: ASD01911550
#	Creating user name:	WinNT
#	Creation time:	15. 06. 2019 19:58

#	Modifying user name:	WinNT
#	Modification time:	15. 06. 2019 19:58

#	Program:	/corina/corina34_cracker 3.40 0067  02.08.2006

@<TRIPOS>MOLECULE
ASD01911550
  38   40    0    0    0
SMALL
NO_CHARGES


@<TRIPOS>ATOM
   1 N1             0.0690     1.5010     0.4945 N.am    
   2 C2            -1.0743     2.2294     1.0611 C.3     
   3 C3            -1.3468     1.6986     2.4720 C.3     
   4 C4            -1.5346     0.1809     2.4143 C.3     
   5 C5            -0.2540    -0.4737     1.8910 C.3     
   6 C6             0.0284     0.0326     0.4684 C.3     
   7 C7             1.1324     2.1674     0.0029 C.2     
   8 C8             1.0979     3.6286    -0.0995 C.2     
   9 C9             2.1776     4.4663    -0.0218 C.2     
  10 S10           -0.3403     4.6157    -0.3520 S.3     
  11 C11            0.6540     6.0691    -0.3218 C.2     
  12 N12            1.9078     5.7354    -0.1413 N.2     
  13 C13            0.1680     7.4073    -0.4754 C.1     
  14 C14           -0.2304     8.5044    -0.6013 C.1     
  15 C15           -0.7164     9.8427    -0.7549 C.ar    
  16 C16            0.1716    10.9219    -0.7131 C.ar    
  17 C17           -0.3040    12.2076    -0.8623 C.ar    
  18 C18           -1.6565    12.4312    -1.0526 C.ar    
  19 C19           -2.5417    11.3682    -1.0952 C.ar    
  20 C20           -2.0806    10.0763    -0.9533 C.ar    
  21 O21            2.1214     1.5554    -0.3560 O.2     
  22 O22           -1.8210    -0.3135     3.7241 O.3     
  23 H23           -0.8422     3.2933     1.1094 H       
  24 H24           -1.9533     2.0731     0.4357 H       
  25 H25           -0.5028     1.9365     3.1195 H       
  26 H26           -2.2508     2.1623     2.8668 H       
  27 H27           -2.3630    -0.0575     1.7473 H       
  28 H28            0.5797    -0.2154     2.5440 H       
  29 H29           -0.3802    -1.5562     1.8723 H       
  30 H30           -0.7613    -0.3046    -0.2030 H       
  31 H31            0.9896    -0.3523     0.1276 H       
  32 H32            3.1828     4.1010     0.1283 H       
  33 H33            1.2271    10.7490    -0.5639 H       
  34 H34            0.3806    13.0422    -0.8302 H       
  35 H35           -2.0231    13.4405    -1.1681 H       
  36 H36           -3.5957    11.5507    -1.2437 H       
  37 H37           -2.7726     9.2478    -0.9867 H       
  38 H38           -1.9522    -1.2708     3.7633 H       
@<TRIPOS>BOND
   1    1    2 1
   2    1    7 am
   3    1    6 1
   4    2    3 1
   5    2   23 1
   6    2   24 1
   7    3    4 1
   8    3   25 1
   9    3   26 1
  10    4    5 1
  11    4   22 1
  12    4   27 1
  13    5    6 1
  14    5   28 1
  15    5   29 1
  16    6   30 1
  17    6   31 1
  18    7    8 1
  19    7   21 2
  20    8    9 2
  21    8   10 1
  22    9   12 1
  23    9   32 1
  24   10   11 1
  25   11   12 2
  26   11   13 1
  27   13   14 3
  28   14   15 1
  29   15   16 ar
  30   15   20 ar
  31   16   17 ar
  32   16   33 1
  33   17   18 ar
  34   17   34 1
  35   18   19 ar
  36   18   35 1
  37   19   20 ar
  38   19   36 1
  39   20   37 1
  40   22   38 1

#	End of record

