#	Name: ASD05143115
#	Creating user name:	WinNT
#	Creation time:	15. 06. 2019 20:57

#	Modifying user name:	WinNT
#	Modification time:	15. 06. 2019 20:57

#	Program:	/corina/corina34_cracker 3.40 0067  02.08.2006

@<TRIPOS>MOLECULE
ASD05143115
 144  148    0    0    0
SMALL
NO_CHARGES


@<TRIPOS>ATOM
   1 C1             2.1704     1.5756     1.7588 C.2     
   2 C2             2.9505     0.3362     2.1146 C.3     
   3 N3             2.8161     2.7377     1.5368 N.am    
   4 O4             0.9621     1.5262     1.6674 O.2     
   5 C5             2.0578     3.9425     1.1910 C.3     
   6 C6             1.2775     3.7002    -0.1026 C.3     
   7 C7             1.0958     4.2675     2.3046 C.2     
   8 C8             2.2581     3.4895    -1.2579 C.3     
   9 C9             1.4778     3.2472    -2.5514 C.3     
  10 N10            2.4168     3.0454    -3.6577 N.pl3   
  11 C11            1.9436     2.8087    -4.9266 C.2     
  12 N12            2.8248     2.6193    -5.9648 N.pl3   
  13 N13            0.6594     2.7639    -5.1454 N.2     
  14 O14            0.7150     3.3915     3.0519 O.2     
  15 N15            0.6586     5.5316     2.4700 N.am    
  16 C16           -0.3532     5.8286     3.4828 C.3     
  17 C17            0.1828     6.9085     4.4326 C.3     
  18 C18           -0.1664     6.5386     5.8508 C.2     
  19 N19            0.6437     6.9511     6.8616 N.am    
  20 C20            0.2355     6.5880     8.2298 C.3     
  21 C21            0.2451     7.8510     9.0936 C.3     
  22 C22           -1.1784     8.1871     9.5346 C.3     
  23 C23           -1.3246     9.7014     9.6842 C.3     
  24 C24           -2.6223    10.0120    10.4366 C.3     
  25 N25           -3.2313    11.2230     9.8494 N.am    
  26 C26           -2.3093    10.2633    11.8892 C.2     
  27 N27           -2.1109     9.2249    12.7252 N.am    
  28 O28           -2.2360    11.3999    12.3059 O.2     
  29 C29           -4.3987    11.0761     9.1646 C.2     
  30 O30           -4.8715     9.9750     8.9792 O.2     
  31 C31           -5.0971    12.3082     8.6498 C.3     
  32 N32           -6.0717    11.9046     7.6068 N.am    
  33 C33           -5.8381    12.9975     9.8013 C.3     
  34 C34           -5.5679    11.7514     6.3490 C.2     
  35 O35           -4.3628    11.7905     6.1743 O.2     
  36 C36           -6.4934    11.5737     5.1817 C.3     
  37 N37           -5.7330    11.1517     3.9844 N.am    
  38 C38           -7.5755    10.5394     5.5006 C.3     
  39 C39           -4.9237    10.0804     4.0992 C.2     
  40 O40           -4.8685     9.4576     5.1410 O.2     
  41 C41           -4.0380     9.6009     2.9643 C.3     
  42 C42           -6.4330    14.2928     9.3119 C.2     
  43 C43           -7.7235    14.4597     8.6392 C.ar    
  44 C44           -7.8484    15.8355     8.3739 C.ar    
  45 N45           -6.7121    16.4467     8.8545 N.pl3   
  46 C46           -5.8833    15.5131     9.4147 C.2     
  47 C47           -8.7401    13.5816     8.2582 C.ar    
  48 C48           -9.8525    14.0640     7.6286 C.ar    
  49 C49           -9.9803    15.4209     7.3640 C.ar    
  50 C50           -8.9900    16.3049     7.7320 C.ar    
  51 N51           -4.5666     8.2503     2.6620 N.am    
  52 C52           -2.5943     9.5742     3.4679 C.3     
  53 C53           -2.1253    10.9833     3.7236 C.ar    
  54 C54           -2.1293    11.4899     5.0098 C.ar    
  55 C55           -1.6991    12.7819     5.2456 C.ar    
  56 C56           -1.2638    13.5690     4.1929 C.ar    
  57 C57           -1.2602    13.0605     2.9051 C.ar    
  58 C58           -1.6859    11.7665     2.6724 C.ar    
  59 C59           -1.6332     6.3413     2.8885 C.2     
  60 O60           -2.5891     6.5134     3.6426 O.2     
  61 C61           -8.5733    10.4718     4.3427 C.3     
  62 C62           -9.6550     9.4378     4.6614 C.3     
  63 N63          -10.6104     9.3730     3.5527 N.pl3   
  64 C64          -11.6771     8.5078     3.6141 C.2     
  65 N65          -12.5738     8.4470     2.5736 N.pl3   
  66 N66          -11.8384     7.7452     4.6588 N.2     
  67 N67           -1.8010     6.5981     1.5815 N.am    
  68 C68           -2.7086     7.6044     1.0238 C.3     
  69 C69           -4.0577     7.4788     1.6810 C.2     
  70 O70           -4.7786     6.5712     1.2740 O.2     
  71 C71           -2.1331     6.0001    -0.7299 C.3     
  72 C72           -2.8549     7.3416    -0.4881 C.3     
  73 C73           -1.1738     5.8911     0.4704 C.3     
  74 F74           -0.8433    14.8322     4.4221 F       
  75 O75           -1.1565     5.8834     6.0888 O.2     
  76 H76            4.0141     0.5726     2.1449 H       
  77 H77            2.6308    -0.0263     3.0915 H       
  78 H78            2.7707    -0.4340     1.3645 H       
  79 H79            3.7828     2.7763     1.6060 H       
  80 H80            2.7453     4.7765     1.0498 H       
  81 H81            0.6531     2.8139     0.0103 H       
  82 H82            0.6472     4.5641    -0.3139 H       
  83 H83            2.8825     4.3758    -1.3707 H       
  84 H84            2.8884     2.6256    -1.0465 H       
  85 H85            0.8535     2.3609    -2.4386 H       
  86 H86            0.8476     4.1110    -2.7628 H       
  87 H87            3.3725     3.0788    -3.4948 H       
  88 H88            3.7805     2.6527    -5.8019 H       
  89 H89            2.4909     2.4523    -6.8600 H       
  90 H90            0.3255     2.5969    -6.0407 H       
  91 H91            1.0152     6.2443     1.9171 H       
  92 H92           -0.5583     4.9170     4.0600 H       
  93 H93            1.2661     6.9713     4.3274 H       
  94 H94           -0.2668     7.8679     4.1817 H       
  95 H95            1.4541     7.4597     6.6868 H       
  96 H96           -0.7635     6.1568     8.2210 H       
  97 H97            0.9411     5.8642     8.6419 H       
  98 H98            0.8679     7.6866     9.9723 H       
  99 H99            0.6498     8.6811     8.5132 H       
 100 H100          -1.8856     7.8290     8.7851 H       
 101 H101          -1.3843     7.7023    10.4897 H       
 102 H102          -0.4739    10.0959    10.2416 H       
 103 H103          -1.3558    10.1659     8.6980 H       
 104 H104          -3.3085     9.1713    10.3497 H       
 105 H105          -2.8132    12.0960     9.9495 H       
 106 H106          -2.1696     8.3159    12.3920 H       
 107 H107          -1.9095     9.3867    13.6602 H       
 108 H108          -4.3664    12.9981     8.2255 H       
 109 H109          -7.0091    11.7645     7.8210 H       
 110 H110          -6.6337    12.3461    10.1630 H       
 111 H111          -5.1392    13.2022    10.6123 H       
 112 H112          -6.9793    12.5332     4.9678 H       
 113 H113          -5.8167    11.6383     3.1431 H       
 114 H114          -7.1139     9.5619     5.6401 H       
 115 H115          -8.0968    10.8286     6.4131 H       
 116 H116          -4.1353    10.2664     2.1083 H       
 117 H117          -6.5282    17.3979     8.8064 H       
 118 H118          -4.9254    15.7256     9.8659 H       
 119 H119          -8.6471    12.5247     8.4601 H       
 120 H120         -10.6384    13.3844     7.3340 H       
 121 H121         -10.8655    15.7872     6.8652 H       
 122 H122          -9.0990    17.3587     7.5220 H       
 123 H123          -5.3230     7.8967     3.1980 H       
 124 H124          -2.5428     9.0006     4.3933 H       
 125 H125          -1.9559     9.1095     2.7164 H       
 126 H126          -2.4692    10.8759     5.8307 H       
 127 H127          -1.7026    13.1776     6.2505 H       
 128 H128          -0.9209    13.6735     2.0832 H       
 129 H129          -1.6832    11.3696     1.6680 H       
 130 H130          -9.0348    11.4493     4.2032 H       
 131 H131          -8.0519    10.1826     3.4302 H       
 132 H132          -9.1935     8.4603     4.8009 H       
 133 H133         -10.1764     9.7270     5.5739 H       
 134 H134         -10.4905     9.9406     2.7753 H       
 135 H135         -12.4538     9.0146     1.7962 H       
 136 H136         -13.3264     7.8366     2.6170 H       
 137 H137         -12.5910     7.1348     4.7021 H       
 138 H138          -2.2819     8.6050     1.1353 H       
 139 H139          -2.8440     5.1731    -0.7284 H       
 140 H140          -1.5731     6.0250    -1.6640 H       
 141 H141          -3.9060     7.2670    -0.7673 H       
 142 H142          -2.3700     8.1379    -1.0552 H       
 143 H143          -0.2233     6.3568     0.2198 H       
 144 H144          -1.0344     4.8417     0.7248 H       
@<TRIPOS>BOND
   1    1    2 1
   2    1    3 am
   3    1    4 2
   4    2   76 1
   5    2   77 1
   6    2   78 1
   7    3    5 1
   8    3   79 1
   9    5    6 1
  10    5    7 1
  11    5   80 1
  12    6    8 1
  13    6   81 1
  14    6   82 1
  15    7   14 2
  16    7   15 am
  17    8    9 1
  18    8   83 1
  19    8   84 1
  20    9   10 1
  21    9   85 1
  22    9   86 1
  23   10   11 1
  24   10   87 1
  25   11   12 1
  26   11   13 2
  27   12   88 1
  28   12   89 1
  29   13   90 1
  30   15   16 1
  31   15   91 1
  32   16   17 1
  33   16   59 1
  34   16   92 1
  35   17   18 1
  36   17   93 1
  37   17   94 1
  38   18   19 am
  39   18   75 2
  40   19   20 1
  41   19   95 1
  42   20   21 1
  43   20   96 1
  44   20   97 1
  45   21   22 1
  46   21   98 1
  47   21   99 1
  48   22   23 1
  49   22  100 1
  50   22  101 1
  51   23   24 1
  52   23  102 1
  53   23  103 1
  54   24   25 1
  55   24   26 1
  56   24  104 1
  57   25   29 am
  58   25  105 1
  59   26   27 am
  60   26   28 2
  61   27  106 1
  62   27  107 1
  63   29   30 2
  64   29   31 1
  65   31   32 1
  66   31   33 1
  67   31  108 1
  68   32   34 am
  69   32  109 1
  70   33   42 1
  71   33  110 1
  72   33  111 1
  73   34   35 2
  74   34   36 1
  75   36   37 1
  76   36   38 1
  77   36  112 1
  78   37   39 am
  79   37  113 1
  80   38   61 1
  81   38  114 1
  82   38  115 1
  83   39   40 2
  84   39   41 1
  85   41   51 1
  86   41   52 1
  87   41  116 1
  88   42   43 1
  89   42   46 2
  90   43   44 ar
  91   43   47 ar
  92   44   45 1
  93   44   50 ar
  94   45   46 1
  95   45  117 1
  96   46  118 1
  97   47   48 ar
  98   47  119 1
  99   48   49 ar
 100   48  120 1
 101   49   50 ar
 102   49  121 1
 103   50  122 1
 104   51   69 am
 105   51  123 1
 106   52   53 1
 107   52  124 1
 108   52  125 1
 109   53   54 ar
 110   53   58 ar
 111   54   55 ar
 112   54  126 1
 113   55   56 ar
 114   55  127 1
 115   56   57 ar
 116   56   74 1
 117   57   58 ar
 118   57  128 1
 119   58  129 1
 120   59   60 2
 121   59   67 am
 122   61   62 1
 123   61  130 1
 124   61  131 1
 125   62   63 1
 126   62  132 1
 127   62  133 1
 128   63   64 1
 129   63  134 1
 130   64   65 1
 131   64   66 2
 132   65  135 1
 133   65  136 1
 134   66  137 1
 135   67   68 1
 136   67   73 1
 137   68   69 1
 138   68   72 1
 139   68  138 1
 140   69   70 2
 141   71   72 1
 142   71   73 1
 143   71  139 1
 144   71  140 1
 145   72  141 1
 146   72  142 1
 147   73  143 1
 148   73  144 1

#	End of record

