#	Name: ASD01915428
#	Creating user name:	WinNT
#	Creation time:	15. 06. 2019 20:05

#	Modifying user name:	WinNT
#	Modification time:	15. 06. 2019 20:05

#	Program:	/corina/corina34_cracker 3.40 0067  02.08.2006

@<TRIPOS>MOLECULE
ASD01915428
  48   52    0    0    0
SMALL
NO_CHARGES


@<TRIPOS>ATOM
   1 N1            -0.0169     1.3936     0.0097 N.pl3   
   2 N2             0.0021    -0.0041     0.0020 N.2     
   3 C3             1.2407    -0.4349    -0.0121 C.2     
   4 C4             2.1134     0.7408    -0.0141 C.ar    
   5 C5             1.2676     1.8669    -0.0000 C.ar    
   6 N6             1.7798     3.0923     0.0008 N.ar    
   7 C7             3.5085     0.9202    -0.0265 C.ar    
   8 C8             4.0014     2.2379    -0.0241 C.ar    
   9 C9             3.0831     3.3084    -0.0113 C.ar    
  10 C10           -1.2242     2.2233     0.0202 C.3     
  11 C11            5.4114     2.4881    -0.0363 C.1     
  12 C12            1.6769    -1.8517    -0.0239 C.ar    
  13 C13            0.9453    -2.8149     0.6691 C.ar    
  14 C14            1.3562    -4.1322     0.6546 C.ar    
  15 C15            2.4920    -4.4976    -0.0454 C.ar    
  16 C16            3.2223    -3.5461    -0.7346 C.ar    
  17 C17            2.8172    -2.2268    -0.7327 C.ar    
  18 C18            4.4276    -0.2392    -0.0410 C.ar    
  19 C19            5.2521    -0.4659    -1.1438 C.ar    
  20 C20            6.1069    -1.5488    -1.1511 C.ar    
  21 C21            6.1474    -2.4093    -0.0684 C.ar    
  22 C22            5.3324    -2.1901     1.0280 C.ar    
  23 C23            4.4777    -1.1074     1.0504 C.ar    
  24 C24            3.5892     4.7004    -0.0101 C.ar    
  25 C25            2.8930     5.6992    -0.6904 C.ar    
  26 C26            3.3695     6.9941    -0.6857 C.ar    
  27 C27            4.5354     7.3026    -0.0079 C.ar    
  28 C28            5.2307     6.3162     0.6685 C.ar    
  29 C29            4.7609     5.0188     0.6762 C.ar    
  30 N30            6.5298     2.6865    -0.0459 N.1     
  31 H31           -1.5183     2.4238     1.0504 H       
  32 H32           -1.0223     3.1651    -0.4899 H       
  33 H33           -2.0304     1.6982    -0.4922 H       
  34 H34            0.0587    -2.5307     1.2166 H       
  35 H35            0.7902    -4.8793     1.1911 H       
  36 H36            2.8101    -5.5297    -0.0537 H       
  37 H37            4.1086    -3.8370    -1.2788 H       
  38 H38            3.3852    -1.4857    -1.2754 H       
  39 H39            5.2210     0.2046    -1.9898 H       
  40 H40            6.7455    -1.7255    -2.0039 H       
  41 H41            6.8177    -3.2560    -0.0793 H       
  42 H42            5.3685    -2.8657     1.8699 H       
  43 H43            3.8456    -0.9346     1.9089 H       
  44 H44            1.9829     5.4594    -1.2202 H       
  45 H45            2.8315     7.7683    -1.2124 H       
  46 H46            4.9045     8.3176    -0.0070 H       
  47 H47            6.1405     6.5630     1.1955 H       
  48 H48            5.3018     4.2506     1.2088 H       
@<TRIPOS>BOND
   1    1    2 1
   2    1    5 1
   3    1   10 1
   4    2    3 2
   5    3    4 1
   6    3   12 1
   7    4    7 ar
   8    4    5 ar
   9    5    6 ar
  10    6    9 ar
  11    7    8 ar
  12    7   18 1
  13    8    9 ar
  14    8   11 1
  15    9   24 1
  16   10   31 1
  17   10   32 1
  18   10   33 1
  19   11   30 3
  20   12   13 ar
  21   12   17 ar
  22   13   14 ar
  23   13   34 1
  24   14   15 ar
  25   14   35 1
  26   15   16 ar
  27   15   36 1
  28   16   17 ar
  29   16   37 1
  30   17   38 1
  31   18   19 ar
  32   18   23 ar
  33   19   20 ar
  34   19   39 1
  35   20   21 ar
  36   20   40 1
  37   21   22 ar
  38   21   41 1
  39   22   23 ar
  40   22   42 1
  41   23   43 1
  42   24   25 ar
  43   24   29 ar
  44   25   26 ar
  45   25   44 1
  46   26   27 ar
  47   26   45 1
  48   27   28 ar
  49   27   46 1
  50   28   29 ar
  51   28   47 1
  52   29   48 1

#	End of record

