#	Name: ASD03331438
#	Creating user name:	WinNT
#	Creation time:	15. 06. 2019 20:39

#	Modifying user name:	WinNT
#	Modification time:	15. 06. 2019 20:39

#	Program:	/corina/corina34_cracker 3.40 0067  02.08.2006

@<TRIPOS>MOLECULE
ASD03331438
  71   75    0    0    0
SMALL
NO_CHARGES


@<TRIPOS>ATOM
   1 N1            -0.5849     1.8546    -1.1434 N.am    
   2 C2            -0.3488     0.4250    -1.3868 C.3     
   3 C3            -0.7941     0.0876    -2.8132 C.3     
   4 C4            -0.0842     1.0187    -3.7987 C.3     
   5 C5            -0.4716     2.4692    -3.5022 C.3     
   6 C6            -0.0226     2.8336    -2.0836 C.3     
   7 C7             1.4074     0.8581    -3.6556 C.2     
   8 O8             2.1059     1.8300    -3.4595 O.2     
   9 N9             1.9651    -0.3656    -3.7455 N.am    
  10 C10           -0.4940     0.6671    -5.2057 C.ar    
  11 C11           -0.0491     1.4331    -6.2670 C.ar    
  12 C12           -0.4251     1.1106    -7.5575 C.ar    
  13 C13           -1.2456     0.0220    -7.7869 C.ar    
  14 C14           -1.6898    -0.7444    -6.7257 C.ar    
  15 C15           -1.3103    -0.4246    -5.4355 C.ar    
  16 C16           -1.3084     2.2599    -0.0810 C.2     
  17 O17           -1.8528     1.4393     0.6329 O.2     
  18 N18           -2.2973     5.6698     0.7393 N.pl3   
  19 C19           -2.6014     4.3634     0.5415 C.2     
  20 C20           -1.4398     3.6966     0.2157 C.2     
  21 C21           -0.3942     4.6564     0.2207 C.2     
  22 C22           -0.9485     5.8526     0.5440 C.2     
  23 C23           -3.9717     3.7471     0.6576 C.3     
  24 C24           -4.6740     3.8057    -0.7004 C.3     
  25 C25           -6.0653     3.1800    -0.5825 C.3     
  26 O26           -6.7212     3.2347    -1.8509 O.3     
  27 C27           -3.2124     6.6744     1.0822 C.ar    
  28 C28           -3.1586     7.2650     2.3376 C.ar    
  29 C29           -4.0612     8.2551     2.6730 C.ar    
  30 C30           -5.0190     8.6582     1.7591 C.ar    
  31 C31           -5.0750     8.0708     0.5074 C.ar    
  32 C32           -4.1707     7.0846     0.1651 C.ar    
  33 Cl33          -6.1525     9.9026     2.1839 Cl      
  34 C34           -0.2240     7.1362     0.6652 C.ar    
  35 C35            0.9375     7.2153     1.4370 C.ar    
  36 C36            1.6094     8.4161     1.5464 C.ar    
  37 C37            1.1332     9.5410     0.8923 C.ar    
  38 C38           -0.0187     9.4675     0.1259 C.ar    
  39 C39           -0.6949     8.2711     0.0045 C.ar    
  40 F40            1.7945    10.7140     1.0025 F       
  41 Cl41           1.5345     5.8066     2.2573 Cl      
  42 H42            0.7130     0.2057    -1.2740 H       
  43 H43           -0.9240    -0.1668    -0.6748 H       
  44 H44           -0.5361    -0.9469    -3.0398 H       
  45 H45           -1.8725     0.2212    -2.8988 H       
  46 H46            0.0159     3.1298    -4.2191 H       
  47 H47           -1.5531     2.5804    -3.5813 H       
  48 H48           -0.3826     3.8311    -1.8313 H       
  49 H49            1.0657     2.8107    -2.0276 H       
  50 H50            1.4169    -1.1330    -3.9722 H       
  51 H51            2.9148    -0.4788    -3.5836 H       
  52 H52            0.5919     2.2836    -6.0878 H       
  53 H53           -0.0780     1.7095    -8.3866 H       
  54 H54           -1.5399    -0.2294    -8.7951 H       
  55 H55           -2.3311    -1.5947    -6.9048 H       
  56 H56           -1.6543    -1.0256    -4.6067 H       
  57 H57            0.6479     4.4698     0.0071 H       
  58 H58           -3.8773     2.7081     0.9733 H       
  59 H59           -4.5570     4.2986     1.3934 H       
  60 H60           -4.7685     4.8447    -1.0161 H       
  61 H61           -4.0888     3.2542    -1.4362 H       
  62 H62           -5.9708     2.1410    -0.2668 H       
  63 H63           -6.6505     3.7316     0.1533 H       
  64 H64           -7.6104     2.8547    -1.8505 H       
  65 H65           -2.4117     6.9502     3.0514 H       
  66 H66           -4.0197     8.7148     3.6494 H       
  67 H67           -5.8238     8.3866    -0.2039 H       
  68 H68           -4.2120     6.6295    -0.8135 H       
  69 H69            2.5074     8.4790     2.1431 H       
  70 H70           -0.3854    10.3476    -0.3814 H       
  71 H71           -1.5900     8.2143    -0.5971 H       
@<TRIPOS>BOND
   1    1    2 1
   2    1    6 1
   3    1   16 am
   4    2    3 1
   5    2   42 1
   6    2   43 1
   7    3    4 1
   8    3   44 1
   9    3   45 1
  10    4    5 1
  11    4    7 1
  12    4   10 1
  13    5    6 1
  14    5   46 1
  15    5   47 1
  16    6   48 1
  17    6   49 1
  18    7    8 2
  19    7    9 am
  20    9   50 1
  21    9   51 1
  22   10   11 ar
  23   10   15 ar
  24   11   12 ar
  25   11   52 1
  26   12   13 ar
  27   12   53 1
  28   13   14 ar
  29   13   54 1
  30   14   15 ar
  31   14   55 1
  32   15   56 1
  33   16   17 2
  34   16   20 1
  35   18   19 1
  36   18   22 1
  37   18   27 1
  38   19   20 2
  39   19   23 1
  40   20   21 1
  41   21   22 2
  42   21   57 1
  43   22   34 1
  44   23   24 1
  45   23   58 1
  46   23   59 1
  47   24   25 1
  48   24   60 1
  49   24   61 1
  50   25   26 1
  51   25   62 1
  52   25   63 1
  53   26   64 1
  54   27   28 ar
  55   27   32 ar
  56   28   29 ar
  57   28   65 1
  58   29   30 ar
  59   29   66 1
  60   30   31 ar
  61   30   33 1
  62   31   32 ar
  63   31   67 1
  64   32   68 1
  65   34   35 ar
  66   34   39 ar
  67   35   36 ar
  68   35   41 1
  69   36   37 ar
  70   36   69 1
  71   37   38 ar
  72   37   40 1
  73   38   39 ar
  74   38   70 1
  75   39   71 1

#	End of record

