#	Name: ASD01914681
#	Creating user name:	WinNT
#	Creation time:	15. 06. 2019 20:04

#	Modifying user name:	WinNT
#	Modification time:	15. 06. 2019 20:04

#	Program:	/corina/corina34_cracker 3.40 0067  02.08.2006

@<TRIPOS>MOLECULE
ASD01914681
  36   38    0    0    0
SMALL
NO_CHARGES


@<TRIPOS>ATOM
   1 N1            -0.0158     1.3159     0.0093 N.ar    
   2 C2             7.1857    -1.2974    -0.0722 C.2     
   3 N3             8.1053    -2.3082    -0.0846 N.pl3   
   4 C4             5.9553    -1.8870    -0.0629 C.2     
   5 N5             6.1431    -3.2306    -0.0697 N.2     
   6 C6             7.4212    -3.4832    -0.0826 C.2     
   7 C7             4.6936    -1.2098    -0.0481 C.1     
   8 C8             3.6593    -0.6547    -0.0360 C.1     
   9 C9             2.3976     0.0225    -0.0212 C.ar    
  10 C10            1.1934    -0.6965    -0.0126 C.ar    
  11 C11            0.0021    -0.0041     0.0020 C.ar    
  12 C12            1.0937     2.0328     0.0025 C.ar    
  13 C13            2.3312     1.4229    -0.0130 C.ar    
  14 C14            8.0413    -4.8566    -0.0945 C.3     
  15 Cl15           0.9934     3.7659     0.0128 Cl      
  16 C16            9.5000    -2.1605    -0.0975 C.ar    
  17 C17            7.4746     0.1816    -0.0638 C.3     
  18 C18           10.2547    -2.5961     0.9827 C.ar    
  19 C19           11.6300    -2.4500     0.9676 C.ar    
  20 C20           12.2535    -1.8685    -0.1261 C.ar    
  21 C21           11.5006    -1.4336    -1.2033 C.ar    
  22 C22           10.1275    -1.5836    -1.1934 C.ar    
  23 F23           13.5969    -1.7260    -0.1403 F       
  24 F24           12.3659    -2.8732     2.0186 F       
  25 H25            1.1998    -1.7764    -0.0178 H       
  26 H26           -0.9303    -0.5491     0.0080 H       
  27 H27            3.2345     2.0148    -0.0185 H       
  28 H28            8.1810    -5.1833    -1.1250 H       
  29 H29            9.0069    -4.8237     0.4102 H       
  30 H30            7.3847    -5.5563     0.4226 H       
  31 H31            7.5382     0.5452    -1.0894 H       
  32 H32            6.6739     0.7052     0.4585 H       
  33 H33            8.4208     0.3641     0.4457 H       
  34 H34            9.7685    -3.0485     1.8344 H       
  35 H35           11.9876    -0.9807    -2.0542 H       
  36 H36            9.5412    -1.2442    -2.0346 H       
@<TRIPOS>BOND
   1    1   11 ar
   2    1   12 ar
   3    2    3 1
   4    2    4 2
   5    2   17 1
   6    3   16 1
   7    3    6 1
   8    4    5 1
   9    4    7 1
  10    5    6 2
  11    6   14 1
  12    7    8 3
  13    8    9 1
  14    9   10 ar
  15    9   13 ar
  16   10   11 ar
  17   10   25 1
  18   11   26 1
  19   12   13 ar
  20   12   15 1
  21   13   27 1
  22   14   28 1
  23   14   29 1
  24   14   30 1
  25   16   18 ar
  26   16   22 ar
  27   17   31 1
  28   17   32 1
  29   17   33 1
  30   18   19 ar
  31   18   34 1
  32   19   20 ar
  33   19   24 1
  34   20   21 ar
  35   20   23 1
  36   21   22 ar
  37   21   35 1
  38   22   36 1

#	End of record

