#	Name: ASD01911615
#	Creating user name:	WinNT
#	Creation time:	15. 06. 2019 19:58

#	Modifying user name:	WinNT
#	Modification time:	15. 06. 2019 19:58

#	Program:	/corina/corina34_cracker 3.40 0067  02.08.2006

@<TRIPOS>MOLECULE
ASD01911615
  38   41    0    0    0
SMALL
NO_CHARGES


@<TRIPOS>ATOM
   1 N1            -0.0257     1.3140    -0.2782 N.am    
   2 C2             0.0021    -0.0041     0.0020 C.2     
   3 C3            -1.2508    -0.7543     0.1205 C.2     
   4 C4            -1.3862    -2.1135     0.0310 C.2     
   5 S5            -2.8471    -0.0659     0.4110 S.3     
   6 C6            -3.5481    -1.6813     0.3771 C.2     
   7 N7            -2.6014    -2.5626     0.1691 N.2     
   8 C8            -4.9363    -1.9846     0.5542 C.1     
   9 C9            -6.0745    -2.2333     0.6993 C.1     
  10 C10           -7.4627    -2.5366     0.8764 C.ar    
  11 C11           -7.9039    -3.8625     0.8289 C.ar    
  12 C12           -9.2423    -4.1466     1.0008 C.ar    
  13 C13          -10.1481    -3.1233     1.2194 C.ar    
  14 C14           -9.7191    -1.8084     1.2677 C.ar    
  15 C15           -8.3831    -1.5088     1.1034 C.ar    
  16 O16            1.0680    -0.5711     0.1566 O.2     
  17 C17            1.2080     2.1141    -0.2597 C.3     
  18 C18            1.4903     2.6336    -1.6754 C.3     
  19 C19            0.2090     3.1657    -2.2616 C.2     
  20 C20           -1.0274     2.8833    -1.7980 C.2     
  21 C21           -1.2925     1.9873    -0.6167 C.3     
  22 N22            0.0526     3.9990    -3.3277 N.pl3   
  23 C23           -1.2765     4.1974    -3.4847 C.2     
  24 N24           -1.9141     3.5238    -2.5629 N.2     
  25 H25           -0.5446    -2.7679    -0.1422 H       
  26 H26           -7.1983    -4.6621     0.6577 H       
  27 H27           -9.5846    -5.1703     0.9644 H       
  28 H28          -11.1951    -3.3520     1.3526 H       
  29 H29          -10.4319    -1.0152     1.4383 H       
  30 H30           -8.0499    -0.4822     1.1413 H       
  31 H31            1.0855     2.9571     0.4202 H       
  32 H32            2.0399     1.4935     0.0735 H       
  33 H33            2.2309     3.4321    -1.6306 H       
  34 H34            1.8652     1.8192    -2.2954 H       
  35 H35           -2.0517     1.2488    -0.8742 H       
  36 H36           -1.6262     2.5828     0.2331 H       
  37 H37            0.7605     4.3789    -3.8714 H       
  38 H38           -1.7352     4.8113    -4.2457 H       
@<TRIPOS>BOND
   1    1    2 am
   2    1   17 1
   3    1   21 1
   4    2    3 1
   5    2   16 2
   6    3    4 2
   7    3    5 1
   8    4    7 1
   9    4   25 1
  10    5    6 1
  11    6    7 2
  12    6    8 1
  13    8    9 3
  14    9   10 1
  15   10   11 ar
  16   10   15 ar
  17   11   12 ar
  18   11   26 1
  19   12   13 ar
  20   12   27 1
  21   13   14 ar
  22   13   28 1
  23   14   15 ar
  24   14   29 1
  25   15   30 1
  26   17   18 1
  27   17   31 1
  28   17   32 1
  29   18   19 1
  30   18   33 1
  31   18   34 1
  32   19   20 2
  33   19   22 1
  34   20   21 1
  35   20   24 1
  36   21   35 1
  37   21   36 1
  38   22   23 1
  39   22   37 1
  40   23   24 2
  41   23   38 1

#	End of record

