#	Name: ASD01410084
#	Creating user name:	WinNT
#	Creation time:	15. 06. 2019 19:16

#	Modifying user name:	WinNT
#	Modification time:	15. 06. 2019 19:16

#	Program:	/corina/corina34_cracker 3.40 0067  02.08.2006

@<TRIPOS>MOLECULE
ASD01410084
  76   80    0    0    0
SMALL
NO_CHARGES


@<TRIPOS>ATOM
   1 C1            -0.0169     1.3981     0.0097 C.ar    
   2 C2             0.0021    -0.0041     0.0020 C.ar    
   3 C3             1.2166    -0.6846    -0.0128 C.ar    
   4 C4             2.4069     0.0404    -0.0203 C.ar    
   5 C5             2.3733     1.4503    -0.0129 C.ar    
   6 C6             1.1460     2.1099     0.0024 C.ar    
   7 C7             3.8206    -0.3357    -0.0360 C.2     
   8 C8             4.5341     0.8169    -0.0371 C.2     
   9 N9             3.6748     1.8918    -0.0234 N.pl3   
  10 C10            6.0103     0.9057    -0.0503 C.ar    
  11 C11            6.6506     1.8036    -0.9053 C.ar    
  12 C12            8.0281     1.8815    -0.9128 C.ar    
  13 C13            8.7743     1.0720    -0.0750 C.ar    
  14 C14            8.1455     0.1794     0.7748 C.ar    
  15 C15            6.7685     0.0961     0.7964 C.ar    
  16 C16            4.3770    -1.7361    -0.0480 C.3     
  17 C17            3.9068    -2.4825     1.2022 C.3     
  18 C18            4.4717    -3.9043     1.1900 C.3     
  19 C19            3.9780    -4.6386    -0.0582 C.3     
  20 C20            4.4482    -3.8922    -1.3083 C.3     
  21 C21            3.8833    -2.4704    -1.2962 C.3     
  22 C22            4.0863     3.2978    -0.0203 C.3     
  23 C23            4.2135     3.7870    -1.4400 C.2     
  24 N24            4.5833     5.0600    -1.6835 N.am    
  25 O25            3.9832     3.0353    -2.3634 O.2     
  26 C26            4.7071     5.5356    -3.0636 C.3     
  27 C27            3.3658     6.1063    -3.5285 C.3     
  28 C28            4.8616     5.9681    -0.5680 C.3     
  29 C29            3.0248     7.3481    -2.7018 C.3     
  30 N30            1.7477     7.9084    -3.1618 N.3     
  31 C31            1.8283     8.3311    -4.5658 C.3     
  32 C32            2.1336     7.1186    -5.4482 C.3     
  33 C33            3.4599     6.4934    -5.0070 C.3     
  34 C34            1.3199     9.0195    -2.3013 C.3     
  35 C35           -1.2656    -0.7585     0.0101 C.2     
  36 O36           -2.4412    -0.1003     0.0249 O.3     
  37 O37           -1.2496    -1.9734     0.0034 O.2     
  38 H38           -0.9626     1.9196     0.0170 H       
  39 H39            1.2361    -1.7644    -0.0181 H       
  40 H40            1.1158     3.1894     0.0078 H       
  41 H41            6.0693     2.4359    -1.5601 H       
  42 H42            8.5249     2.5757    -1.5743 H       
  43 H43            9.8523     1.1368    -0.0846 H       
  44 H44            8.7337    -0.4501     1.4261 H       
  45 H45            6.2789    -0.6008     1.4605 H       
  46 H46            5.4661    -1.6943    -0.0580 H       
  47 H47            4.2585    -1.9594     2.0914 H       
  48 H48            2.8177    -2.5243     1.2122 H       
  49 H49            5.5609    -3.8624     1.1799 H       
  50 H50            4.1368    -4.4360     2.0806 H       
  51 H51            4.3805    -5.6515    -0.0669 H       
  52 H52            2.8889    -4.6804    -0.0482 H       
  53 H53            5.5374    -3.8504    -1.3184 H       
  54 H54            4.0965    -4.4153    -2.1976 H       
  55 H55            2.7941    -2.5123    -1.2861 H       
  56 H56            4.2183    -1.9387    -2.1868 H       
  57 H57            3.3392     3.8938     0.5038 H       
  58 H58            5.0474     3.3940     0.4847 H       
  59 H59            5.4694     6.3131    -3.1130 H       
  60 H60            4.9923     4.7054    -3.7098 H       
  61 H61            2.5859     5.3562    -3.3971 H       
  62 H62            5.9168     5.9047    -0.3024 H       
  63 H63            4.6218     6.9897    -0.8628 H       
  64 H64            4.2531     5.6855     0.2910 H       
  65 H65            2.9430     7.0732    -1.6502 H       
  66 H66            3.8122     8.0921    -2.8223 H       
  67 H67            0.8774     8.7700    -4.8681 H       
  68 H68            2.6213     9.0705    -4.6775 H       
  69 H69            1.3340     6.3847    -5.3475 H       
  70 H70            2.2088     7.4352    -6.4885 H       
  71 H71            4.2658     7.2143    -5.1442 H       
  72 H72            3.6599     5.6039    -5.6044 H       
  73 H73            2.0742     9.8061    -2.3216 H       
  74 H74            0.3716     9.4159    -2.6643 H       
  75 H75            1.1963     8.6609    -1.2794 H       
  76 H76           -3.2452    -0.6377     0.0297 H       
@<TRIPOS>BOND
   1    1    2 ar
   2    1    6 ar
   3    1   38 1
   4    2    3 ar
   5    2   35 1
   6    3    4 ar
   7    3   39 1
   8    4    5 ar
   9    4    7 1
  10    5    6 ar
  11    5    9 1
  12    6   40 1
  13    7    8 2
  14    7   16 1
  15    8    9 1
  16    8   10 1
  17    9   22 1
  18   10   11 ar
  19   10   15 ar
  20   11   12 ar
  21   11   41 1
  22   12   13 ar
  23   12   42 1
  24   13   14 ar
  25   13   43 1
  26   14   15 ar
  27   14   44 1
  28   15   45 1
  29   16   17 1
  30   16   21 1
  31   16   46 1
  32   17   18 1
  33   17   47 1
  34   17   48 1
  35   18   19 1
  36   18   49 1
  37   18   50 1
  38   19   20 1
  39   19   51 1
  40   19   52 1
  41   20   21 1
  42   20   53 1
  43   20   54 1
  44   21   55 1
  45   21   56 1
  46   22   23 1
  47   22   57 1
  48   22   58 1
  49   23   24 am
  50   23   25 2
  51   24   26 1
  52   24   28 1
  53   26   27 1
  54   26   59 1
  55   26   60 1
  56   27   29 1
  57   27   33 1
  58   27   61 1
  59   28   62 1
  60   28   63 1
  61   28   64 1
  62   29   30 1
  63   29   65 1
  64   29   66 1
  65   30   31 1
  66   30   34 1
  67   31   32 1
  68   31   67 1
  69   31   68 1
  70   32   33 1
  71   32   69 1
  72   32   70 1
  73   33   71 1
  74   33   72 1
  75   34   73 1
  76   34   74 1
  77   34   75 1
  78   35   36 1
  79   35   37 2
  80   36   76 1

#	End of record

