#	Name: ASD01881655
#	Creating user name:	WinNT
#	Creation time:	15. 06. 2019 19:43

#	Modifying user name:	WinNT
#	Modification time:	15. 06. 2019 19:43

#	Program:	/corina/corina34_cracker 3.40 0067  02.08.2006

@<TRIPOS>MOLECULE
ASD01881655
  43   45    0    0    0
SMALL
NO_CHARGES


@<TRIPOS>ATOM
   1 N1            -0.0154     1.2839     0.0091 N.pl3   
   2 N2             0.0021    -0.0041     0.0020 N.2     
   3 N3             1.2033    -0.4649    -0.0119 N.2     
   4 C4             2.0741     0.5645    -0.0147 C.ar    
   5 C5             1.2843     1.7298    -0.0009 C.ar    
   6 C6             3.4670     0.6759    -0.0271 C.ar    
   7 C7             4.0484     1.9285    -0.0255 C.ar    
   8 C8             3.2560     3.0739    -0.0118 C.ar    
   9 C9             1.8924     2.9784    -0.0004 C.ar    
  10 O10            5.4033     2.0444    -0.0370 O.3     
  11 C11            5.9411     3.3683    -0.0346 C.3     
  12 C12            7.4465     3.2990    -0.0485 C.ar    
  13 C13            8.1936     4.4650    -0.0489 C.ar    
  14 C14            9.5764     4.3997    -0.0616 C.ar    
  15 C15           10.2097     3.1712    -0.0740 C.ar    
  16 C16            9.4629     2.0081    -0.0740 C.ar    
  17 C17            8.0818     2.0720    -0.0551 C.ar    
  18 F18            7.5735     5.6652    -0.0372 F       
  19 C19           -1.2133     2.1272     0.0196 C.3     
  20 C20           -1.6228     2.4135     1.4657 C.3     
  21 C21           -0.4829     3.1377     2.1848 C.3     
  22 C22           -2.8739     3.2942     1.4767 C.3     
  23 C23           -1.9212     1.0947     2.1819 C.3     
  24 Br24           4.5472    -0.8761    -0.0451 Br      
  25 H25            3.7236     4.0474    -0.0103 H       
  26 H26            1.2882     3.8735     0.0099 H       
  27 H27            5.5939     3.9031    -0.9187 H       
  28 H28            5.6098     3.8935     0.8612 H       
  29 H29           10.1601     5.3084    -0.0623 H       
  30 H30           11.2884     3.1201    -0.0839 H       
  31 H31            9.9585     1.0486    -0.0844 H       
  32 H32            7.4994     1.1625    -0.0499 H       
  33 H33           -1.0007     3.0667    -0.4906 H       
  34 H34           -2.0254     1.6113    -0.4926 H       
  35 H35           -0.2704     4.0772     1.6746 H       
  36 H36           -0.7746     3.3417     3.2150 H       
  37 H37            0.4084     2.5103     2.1769 H       
  38 H38           -3.6859     2.7782     0.9645 H       
  39 H39           -3.1656     3.4981     2.5070 H       
  40 H40           -2.6613     4.2337     0.9666 H       
  41 H41           -1.0299     0.4673     2.1740 H       
  42 H42           -2.2129     1.2987     3.2121 H       
  43 H43           -2.7332     0.5788     1.6696 H       
@<TRIPOS>BOND
   1    1    2 1
   2    1    5 1
   3    1   19 1
   4    2    3 2
   5    3    4 1
   6    4    5 ar
   7    4    6 ar
   8    5    9 ar
   9    6    7 ar
  10    6   24 1
  11    7    8 ar
  12    7   10 1
  13    8    9 ar
  14    8   25 1
  15    9   26 1
  16   10   11 1
  17   11   12 1
  18   11   27 1
  19   11   28 1
  20   12   13 ar
  21   12   17 ar
  22   13   14 ar
  23   13   18 1
  24   14   15 ar
  25   14   29 1
  26   15   16 ar
  27   15   30 1
  28   16   17 ar
  29   16   31 1
  30   17   32 1
  31   19   20 1
  32   19   33 1
  33   19   34 1
  34   20   21 1
  35   20   22 1
  36   20   23 1
  37   21   35 1
  38   21   36 1
  39   21   37 1
  40   22   38 1
  41   22   39 1
  42   22   40 1
  43   23   41 1
  44   23   42 1
  45   23   43 1

#	End of record

