#	Name: ASD01883322
#	Creating user name:	WinNT
#	Creation time:	15. 06. 2019 19:46

#	Modifying user name:	WinNT
#	Modification time:	15. 06. 2019 19:46

#	Program:	/corina/corina34_cracker 3.40 0067  02.08.2006

@<TRIPOS>MOLECULE
ASD01883322
  45   46    0    0    0
SMALL
NO_CHARGES


@<TRIPOS>ATOM
   1 N1            -0.0162     1.3419     0.0115 N.am    
   2 C2            -0.0003    -0.0006    -0.0854 C.2     
   3 C3            -1.2183    -0.7226    -0.0812 C.2     
   4 C4            -2.4225    -0.0124     0.0251 C.2     
   5 C5            -2.3754     1.3878     0.1233 C.2     
   6 C6            -1.1834     2.0265     0.1199 C.2     
   7 O7             1.0610    -0.5939    -0.1771 O.2     
   8 C8            -1.2203    -2.1509    -0.1839 C.1     
   9 N9            -1.2218    -3.2840    -0.2654 N.1     
  10 O10           -3.6076    -0.6636     0.0325 O.3     
  11 C11           -4.3747    -0.6012     1.2366 C.3     
  12 C12            1.2506     2.0777     0.0060 C.3     
  13 C13            1.6256     2.4369    -1.4332 C.3     
  14 C14            2.9486     3.2053    -1.4390 C.3     
  15 C15            4.0714     2.2913    -0.9443 C.3     
  16 C16            3.2608     3.6724    -2.8620 C.3     
  17 C17           -5.6727    -1.3907     1.0558 C.3     
  18 C18           -6.4816    -1.3248     2.3256 C.ar    
  19 C19           -7.3982    -0.3064     2.5092 C.ar    
  20 C20           -8.1401    -0.2460     3.6740 C.ar    
  21 C21           -7.9659    -1.2043     4.6550 C.ar    
  22 C22           -7.0501    -2.2232     4.4709 C.ar    
  23 C23           -6.3112    -2.2861     3.3043 C.ar    
  24 H24           -3.2912     1.9543     0.2057 H       
  25 H25           -1.1600     3.1036     0.1963 H       
  26 H26           -3.7993    -1.0308     2.0566 H       
  27 H27           -4.6104     0.4385     1.4637 H       
  28 H28            1.1432     2.9904     0.5921 H       
  29 H29            2.0335     1.4565     0.4412 H       
  30 H30            1.7330     1.5241    -2.0192 H       
  31 H31            0.8427     3.0580    -1.8684 H       
  32 H32            2.8687     4.0711    -0.7816 H       
  33 H33            4.1513     1.4255    -1.6016 H       
  34 H34            5.0139     2.8388    -0.9484 H       
  35 H35            3.8489     1.9585     0.0696 H       
  36 H36            2.4609     4.3236    -3.2145 H       
  37 H37            4.2034     4.2199    -2.8661 H       
  38 H38            3.3407     2.8066    -3.5193 H       
  39 H39           -6.2481    -0.9610     0.2358 H       
  40 H40           -5.4370    -2.4303     0.8287 H       
  41 H41           -7.5343     0.4422     1.7429 H       
  42 H42           -8.8557     0.5500     3.8178 H       
  43 H43           -8.5451    -1.1567     5.5653 H       
  44 H44           -6.9137    -2.9717     5.2375 H       
  45 H45           -5.5957    -3.0822     3.1605 H       
@<TRIPOS>BOND
   1    1    2 am
   2    1   12 1
   3    1    6 1
   4    2    3 1
   5    2    7 2
   6    3    4 2
   7    3    8 1
   8    4    5 1
   9    4   10 1
  10    5    6 2
  11    5   24 1
  12    6   25 1
  13    8    9 3
  14   10   11 1
  15   11   17 1
  16   11   26 1
  17   11   27 1
  18   12   13 1
  19   12   28 1
  20   12   29 1
  21   13   14 1
  22   13   30 1
  23   13   31 1
  24   14   15 1
  25   14   16 1
  26   14   32 1
  27   15   33 1
  28   15   34 1
  29   15   35 1
  30   16   36 1
  31   16   37 1
  32   16   38 1
  33   17   18 1
  34   17   39 1
  35   17   40 1
  36   18   19 ar
  37   18   23 ar
  38   19   20 ar
  39   19   41 1
  40   20   21 ar
  41   20   42 1
  42   21   22 ar
  43   21   43 1
  44   22   23 ar
  45   22   44 1
  46   23   45 1

#	End of record

