#	Name: ASD03540501
#	Creating user name:	WinNT
#	Creation time:	15. 06. 2019 20:43

#	Modifying user name:	WinNT
#	Modification time:	15. 06. 2019 20:43

#	Program:	/corina/corina34_cracker 3.40 0067  02.08.2006

@<TRIPOS>MOLECULE
ASD03540501
  55   58    0    0    0
SMALL
NO_CHARGES


@<TRIPOS>ATOM
   1 C1             2.7512    -8.6913    -2.5513 C.2     
   2 C2             2.0602    -7.5588    -1.9015 C.ar    
   3 C3             2.7901    -6.4564    -1.4524 C.ar    
   4 C4             2.1385    -5.4020    -0.8470 C.ar    
   5 C5             0.7649    -5.4354    -0.6838 C.ar    
   6 C6             0.0356    -6.5249    -1.1260 C.ar    
   7 C7             0.6737    -7.5833    -1.7388 C.ar    
   8 O8             3.9570    -8.6649    -2.6959 O.2     
   9 O9             2.0447    -9.7558    -2.9784 O.3     
  10 C10            0.0601    -4.2800    -0.0210 C.3     
  11 N11           -3.3737    -4.7481     1.2287 N.am    
  12 C12           -2.2986    -4.3338     0.5372 C.2     
  13 N13           -1.0579    -4.7846     0.7800 N.am    
  14 C14           -0.8212    -5.6954     1.7492 C.2     
  15 C15           -1.9652    -6.1858     2.5398 C.ar    
  16 C16           -1.8037    -7.1222     3.5528 C.ar    
  17 C17           -2.9211    -7.5515     4.2688 C.ar    
  18 C18           -4.1890    -7.0398     3.9642 C.ar    
  19 C19           -4.3472    -6.1191     2.9674 C.ar    
  20 C20           -3.2456    -5.6796     2.2440 C.ar    
  21 C21           -2.7675    -8.5461     5.3478 C.2     
  22 N22           -3.8467    -8.9615     6.0401 N.am    
  23 O23           -1.6678    -8.9909     5.6124 O.2     
  24 C24           -3.7064    -9.8700     7.0257 C.2     
  25 C25           -5.9015   -11.6653     9.4968 C.ar    
  26 C26           -4.7689   -11.2681     8.8128 C.ar    
  27 C27           -4.8922   -10.3263     7.7864 C.ar    
  28 C28           -6.1665    -9.8271     7.4986 C.ar    
  29 C29           -7.2449   -10.2802     8.2335 C.ar    
  30 N30           -7.0844   -11.1694     9.1932 N.ar    
  31 O31           -2.6073   -10.3144     7.2901 O.2     
  32 O32            0.3050    -6.1003     1.9636 O.2     
  33 O33           -2.4565    -3.5145    -0.3469 O.2     
  34 C34            1.0423    -3.5359     0.8859 C.3     
  35 C35            2.7894   -10.8318    -3.6076 C.3     
  36 H36            3.8624    -6.4294    -1.5785 H       
  37 H37            2.7019    -4.5487    -0.4992 H       
  38 H38           -1.0363    -6.5448    -0.9949 H       
  39 H39            0.1027    -8.4309    -2.0879 H       
  40 H40           -0.3176    -3.5990    -0.7836 H       
  41 H41           -4.2488    -4.3877     1.0160 H       
  42 H42           -0.8240    -7.5138     3.7833 H       
  43 H43           -5.0499    -7.3766     4.5226 H       
  44 H44           -5.3299    -5.7322     2.7416 H       
  45 H45           -4.7244    -8.6066     5.8290 H       
  46 H46           -5.8172   -12.3955    10.2881 H       
  47 H47           -3.8028   -11.6784     9.0672 H       
  48 H48           -6.3053    -9.0982     6.7139 H       
  49 H49           -8.2329    -9.9004     8.0190 H       
  50 H50            1.4200    -4.2169     1.6486 H       
  51 H51            1.8741    -3.1604     0.2900 H       
  52 H52            0.5325    -2.7002     1.3654 H       
  53 H53            2.1023   -11.6244    -3.9038 H       
  54 H54            3.3051   -10.4499    -4.4887 H       
  55 H55            3.5199   -11.2288    -2.9027 H       
@<TRIPOS>BOND
   1    1    2 1
   2    1    8 2
   3    1    9 1
   4    2    3 ar
   5    2    7 ar
   6    3    4 ar
   7    3   36 1
   8    4    5 ar
   9    4   37 1
  10    5    6 ar
  11    5   10 1
  12    6    7 ar
  13    6   38 1
  14    7   39 1
  15    9   35 1
  16   10   13 1
  17   10   34 1
  18   10   40 1
  19   11   12 am
  20   11   20 1
  21   11   41 1
  22   12   13 am
  23   12   33 2
  24   13   14 am
  25   14   15 1
  26   14   32 2
  27   15   16 ar
  28   15   20 ar
  29   16   17 ar
  30   16   42 1
  31   17   18 ar
  32   17   21 1
  33   18   19 ar
  34   18   43 1
  35   19   20 ar
  36   19   44 1
  37   21   22 am
  38   21   23 2
  39   22   24 am
  40   22   45 1
  41   24   27 1
  42   24   31 2
  43   25   26 ar
  44   25   30 ar
  45   25   46 1
  46   26   27 ar
  47   26   47 1
  48   27   28 ar
  49   28   29 ar
  50   28   48 1
  51   29   30 ar
  52   29   49 1
  53   34   50 1
  54   34   51 1
  55   34   52 1
  56   35   53 1
  57   35   54 1
  58   35   55 1

#	End of record

