#	Name: ASD09116033
#	Creating user name:	WinNT
#	Creation time:	15. 06. 2019 21:20

#	Modifying user name:	WinNT
#	Modification time:	15. 06. 2019 21:20

#	Program:	/corina/corina34_cracker 3.40 0067  02.08.2006

@<TRIPOS>MOLECULE
ASD09116033
  82   89    0    0    0
SMALL
NO_CHARGES


@<TRIPOS>ATOM
   1 C1             0.3844     1.2404     0.4458 C.ar    
   2 C2             0.3814    -0.1524     0.4598 C.ar    
   3 C3            -0.8142    -0.8160     0.5908 C.ar    
   4 N4            -1.9293    -0.0923     0.7001 N.ar    
   5 N5            -1.9298     1.1916     0.6880 N.ar    
   6 C6            -0.8115     1.9129     0.5692 C.ar    
   7 N7            -0.8610    -2.2113     0.6085 N.pl3   
   8 N8             0.2286    -3.0909     0.5033 N.2     
   9 C9            -0.2549    -4.3084     0.5656 C.2     
  10 N10           -1.5844    -4.2432     0.7037 N.2     
  11 C11           -1.9651    -2.9841     0.7364 C.2     
  12 N12            0.4958    -5.4824     0.4986 N.pl3   
  13 C13           -0.1246    -6.7201     0.6874 C.ar    
  14 C14            0.3730    -7.8519     0.0532 C.ar    
  15 C15           -1.2370    -6.8222     1.5142 C.ar    
  16 C16           -1.8430    -8.0519     1.6937 C.ar    
  17 C17           -1.3524    -9.1659     1.0625 C.ar    
  18 C18           -0.2413    -9.0748     0.2413 C.ar    
  19 N19           -3.2638    -2.5306     0.8692 N.pl3   
  20 C20            1.7597     1.8416     0.2967 C.3     
  21 C21            2.6204     1.3146     1.4580 C.3     
  22 C22            2.6171    -0.2140     1.4740 C.3     
  23 C23            1.7546    -0.7616     0.3237 C.3     
  24 C24            2.3644     1.2895    -1.0059 C.3     
  25 C25            2.3615    -0.2391    -0.9900 C.3     
  26 C26           -0.8574     3.3951     0.5599 C.ar    
  27 C27           -1.7365     4.0619    -0.2916 C.ar    
  28 C28           -1.7757     5.4411    -0.2969 C.ar    
  29 C29           -0.9427     6.1631     0.5422 C.ar    
  30 C30           -0.0670     5.5043     1.3906 C.ar    
  31 C31           -0.0253     4.1257     1.4071 C.ar    
  32 C32           -3.0564    -8.1601     2.5939 C.3     
  33 C33           -2.6522    -8.9123     3.8642 C.3     
  34 C34           -2.7543   -10.4112     3.6619 C.3     
  35 C35           -1.7400   -10.9832     2.6914 C.3     
  36 C36           -2.0215   -10.5101     1.2635 C.3     
  37 N37           -2.5775   -11.0701     4.9628 N.3     
  38 C38           -2.7849   -12.5255     4.8505 C.3     
  39 C39           -1.5021   -13.2112     5.3660 C.3     
  40 C40           -0.8631   -12.1236     6.2691 C.3     
  41 C41           -1.2214   -10.8278     5.4995 C.3     
  42 C42           -2.6424     3.2776    -1.2056 C.3     
  43 F43           -0.9839     7.5134     0.5331 F       
  44 H44            1.4484    -5.4394     0.3210 H       
  45 H45            1.2396    -7.7754    -0.5867 H       
  46 H46           -1.6252    -5.9469     2.0135 H       
  47 H47            0.1412    -9.9555    -0.2532 H       
  48 H48           -3.9933    -3.1650     0.9484 H       
  49 H49           -3.4458    -1.5780     0.8833 H       
  50 H50            1.7172     2.9308     0.2987 H       
  51 H51            3.6435     1.6716     1.3393 H       
  52 H52            2.2195     1.6858     2.4012 H       
  53 H53            3.6386    -0.5778     1.3633 H       
  54 H54            2.2142    -0.5636     2.4246 H       
  55 H55            1.7081    -1.8504     0.3483 H       
  56 H56            1.7771     1.6422    -1.8537 H       
  57 H57            3.3891     1.6470    -1.1074 H       
  58 H58            3.3849    -0.6024    -1.0838 H       
  59 H59            1.7731    -0.6071    -1.8304 H       
  60 H60           -2.4566     5.9586    -0.9564 H       
  61 H61            0.5806     6.0711     2.0431 H       
  62 H62            0.6574     3.6131     2.0685 H       
  63 H63           -3.4086    -7.1622     2.8555 H       
  64 H64           -3.8464    -8.7075     2.0797 H       
  65 H65           -1.6248    -8.6547     4.1214 H       
  66 H66           -3.3102    -8.6155     4.6809 H       
  67 H67           -3.7538   -10.6431     3.2940 H       
  68 H68           -0.7413   -10.6601     2.9853 H       
  69 H69           -1.7874   -12.0717     2.7239 H       
  70 H70           -3.0968   -10.4095     1.1163 H       
  71 H71           -1.6172   -11.2305     0.5524 H       
  72 H72           -3.6369   -12.8268     5.4599 H       
  73 H73           -2.9571   -12.7963     3.8088 H       
  74 H74           -1.7472   -14.0999     5.9476 H       
  75 H75           -0.8397   -13.4621     4.5375 H       
  76 H76           -1.3141   -12.1257     7.2614 H       
  77 H77            0.2172   -12.2540     6.3326 H       
  78 H78           -0.5153   -10.6622     4.6858 H       
  79 H79           -1.2283    -9.9738     6.1768 H       
  80 H80           -3.6087     3.1327    -0.7225 H       
  81 H81           -2.7807     3.8255    -2.1377 H       
  82 H82           -2.1930     2.3074    -1.4176 H       
@<TRIPOS>BOND
   1    1    2 ar
   2    1   20 1
   3    1    6 ar
   4    2    3 ar
   5    2   23 1
   6    3    4 ar
   7    3    7 1
   8    4    5 ar
   9    5    6 ar
  10    6   26 1
  11    7    8 1
  12    7   11 1
  13    8    9 2
  14    9   10 1
  15    9   12 1
  16   10   11 2
  17   11   19 1
  18   12   13 1
  19   12   44 1
  20   13   14 ar
  21   13   15 ar
  22   14   18 ar
  23   14   45 1
  24   15   16 ar
  25   15   46 1
  26   16   17 ar
  27   16   32 1
  28   17   18 ar
  29   17   36 1
  30   18   47 1
  31   19   48 1
  32   19   49 1
  33   20   21 1
  34   20   24 1
  35   20   50 1
  36   21   22 1
  37   21   51 1
  38   21   52 1
  39   22   23 1
  40   22   53 1
  41   22   54 1
  42   23   25 1
  43   23   55 1
  44   24   25 1
  45   24   56 1
  46   24   57 1
  47   25   58 1
  48   25   59 1
  49   26   27 ar
  50   26   31 ar
  51   27   28 ar
  52   27   42 1
  53   28   29 ar
  54   28   60 1
  55   29   30 ar
  56   29   43 1
  57   30   31 ar
  58   30   61 1
  59   31   62 1
  60   32   33 1
  61   32   63 1
  62   32   64 1
  63   33   34 1
  64   33   65 1
  65   33   66 1
  66   34   35 1
  67   34   37 1
  68   34   67 1
  69   35   36 1
  70   35   68 1
  71   35   69 1
  72   36   70 1
  73   36   71 1
  74   37   38 1
  75   37   41 1
  76   38   39 1
  77   38   72 1
  78   38   73 1
  79   39   40 1
  80   39   74 1
  81   39   75 1
  82   40   41 1
  83   40   76 1
  84   40   77 1
  85   41   78 1
  86   41   79 1
  87   42   80 1
  88   42   81 1
  89   42   82 1

#	End of record

