#	Name: ASD03430550
#	Creating user name:	WinNT
#	Creation time:	15. 06. 2019 20:41

#	Modifying user name:	WinNT
#	Modification time:	15. 06. 2019 20:41

#	Program:	/corina/corina34_cracker 3.40 0067  02.08.2006

@<TRIPOS>MOLECULE
ASD03430550
  62   68    0    0    0
SMALL
NO_CHARGES


@<TRIPOS>ATOM
   1 N1            -0.0159     1.4930     0.4907 N.am    
   2 C2             0.0407     0.2260     0.9342 C.2     
   3 C3             1.4797    -0.0494     1.3146 C.3     
   4 C4             2.1947     1.2482     1.0148 C.ar    
   5 C5             3.5080     1.6439     1.1424 C.ar    
   6 C6             3.8836     2.9294     0.7801 C.ar    
   7 C7             2.9304     3.8126     0.2858 C.ar    
   8 C8             1.6112     3.4106     0.1597 C.ar    
   9 C9             1.2320     2.1211     0.5250 C.ar    
  10 O10            5.1834     3.3102     0.9184 O.3     
  11 O11            3.2796     5.0762    -0.0825 O.3     
  12 C12            4.5310     5.5675     0.4096 C.3     
  13 C13            5.5916     4.4786     0.1985 C.3     
  14 O14           -0.8872    -0.5511     1.0148 O.2     
  15 O15            1.7940    -1.0884     6.8463 O.3     
  16 C16            0.8711    -0.1325     7.3952 C.3     
  17 C17            0.8492     0.9796     6.3199 C.3     
  18 C18            1.2423     0.2147     5.0706 C.ar    
  19 C19            1.7827    -0.9957     5.4882 C.ar    
  20 C20            2.2181    -1.9050     4.5291 C.ar    
  21 C21            2.1183    -1.5984     3.1826 C.ar    
  22 C22            1.5836    -0.3828     2.7806 C.ar    
  23 C23            1.1468     0.5217     3.7312 C.ar    
  24 O24            2.5463    -2.4909     2.2514 O.3     
  25 C25           -1.2432     2.1397     0.0198 C.3     
  26 C26           -0.9981     2.7581    -1.3325 C.ar    
  27 C27           -1.5136     4.0069    -1.6250 C.ar    
  28 C28           -1.2887     4.5742    -2.8654 C.ar    
  29 C29           -0.5481     3.8928    -3.8131 C.ar    
  30 C30           -0.0318     2.6444    -3.5202 C.ar    
  31 C31           -0.2530     2.0790    -2.2783 C.ar    
  32 C32           -2.3417     1.1137    -0.0887 C.ar    
  33 C33           -3.4806     1.2361     0.6851 C.ar    
  34 C34           -4.4882     0.2950     0.5856 C.ar    
  35 C35           -4.3572    -0.7682    -0.2881 C.ar    
  36 C36           -3.2187    -0.8900    -1.0626 C.ar    
  37 C37           -2.2130     0.0534    -0.9663 C.ar    
  38 H38            1.8868    -0.8586     0.7083 H       
  39 H39            4.2452     0.9535     1.5249 H       
  40 H40            0.8731     4.1000    -0.2228 H       
  41 H41            4.8135     6.4668    -0.1377 H       
  42 H42            4.4443     5.7952     1.4720 H       
  43 H43            6.5541     4.8250     0.5752 H       
  44 H44            5.6738     4.2463    -0.8632 H       
  45 H45           -0.1181    -0.5748     7.5135 H       
  46 H46            1.2375     0.2563     8.3453 H       
  47 H47           -0.1496     1.4041     6.2188 H       
  48 H48            1.5797     1.7559     6.5474 H       
  49 H49            2.6349    -2.8529     4.8359 H       
  50 H50            0.7298     1.4691     3.4231 H       
  51 H51            1.8648    -3.1115     1.9590 H       
  52 H52           -1.5391     2.9155     0.7259 H       
  53 H53           -2.0922     4.5393    -0.8847 H       
  54 H54           -1.6921     5.5495    -3.0943 H       
  55 H55           -0.3730     4.3357    -4.7824 H       
  56 H56            0.5466     2.1119    -4.2607 H       
  57 H57            0.1535     1.1052    -2.0481 H       
  58 H58           -3.5830     2.0667     1.3678 H       
  59 H59           -5.3777     0.3902     1.1908 H       
  60 H60           -5.1441    -1.5038    -0.3653 H       
  61 H61           -3.1162    -1.7209    -1.7450 H       
  62 H62           -1.3251    -0.0397    -1.5741 H       
@<TRIPOS>BOND
   1    1    2 am
   2    1    9 1
   3    1   25 1
   4    2    3 1
   5    2   14 2
   6    3    4 1
   7    3   22 1
   8    3   38 1
   9    4    5 ar
  10    4    9 ar
  11    5    6 ar
  12    5   39 1
  13    6    7 ar
  14    6   10 1
  15    7    8 ar
  16    7   11 1
  17    8    9 ar
  18    8   40 1
  19   10   13 1
  20   11   12 1
  21   12   13 1
  22   12   41 1
  23   12   42 1
  24   13   43 1
  25   13   44 1
  26   15   16 1
  27   15   19 1
  28   16   17 1
  29   16   45 1
  30   16   46 1
  31   17   18 1
  32   17   47 1
  33   17   48 1
  34   18   19 ar
  35   18   23 ar
  36   19   20 ar
  37   20   21 ar
  38   20   49 1
  39   21   22 ar
  40   21   24 1
  41   22   23 ar
  42   23   50 1
  43   24   51 1
  44   25   26 1
  45   25   32 1
  46   25   52 1
  47   26   27 ar
  48   26   31 ar
  49   27   28 ar
  50   27   53 1
  51   28   29 ar
  52   28   54 1
  53   29   30 ar
  54   29   55 1
  55   30   31 ar
  56   30   56 1
  57   31   57 1
  58   32   33 ar
  59   32   37 ar
  60   33   34 ar
  61   33   58 1
  62   34   35 ar
  63   34   59 1
  64   35   36 ar
  65   35   60 1
  66   36   37 ar
  67   36   61 1
  68   37   62 1

#	End of record

