#	Name: ASD01120110
#	Creating user name:	WinNT
#	Creation time:	15. 06. 2019 18:59

#	Modifying user name:	WinNT
#	Modification time:	15. 06. 2019 18:59

#	Program:	/corina/corina34_cracker 3.40 0067  02.08.2006

@<TRIPOS>MOLECULE
ASD01120110
  33   35    0    0    0
SMALL
NO_CHARGES


@<TRIPOS>ATOM
   1 C1            -0.0213     1.3881    -0.0723 C.ar    
   2 C2            -0.0741     0.1556     0.5620 C.ar    
   3 C3            -1.2588    -0.5530     0.5971 C.ar    
   4 C4            -2.3977    -0.0312    -0.0024 C.ar    
   5 C5            -2.3440     1.2030    -0.6368 C.ar    
   6 C6            -1.1596     1.9125    -0.6668 C.ar    
   7 N7            -3.5990    -0.7492     0.0324 N.pl3   
   8 C8            -4.8049    -0.0767     0.1526 C.2     
   9 N9            -5.9786    -0.6243     0.0791 N.2     
  10 C10           -7.0290     0.1827     0.2194 C.2     
  11 C11           -6.7347     1.4786     0.4218 C.2     
  12 S12           -4.9814     1.6521     0.4363 S.3     
  13 C13           -8.4251    -0.3136     0.1561 C.ar    
  14 C14           -8.6772    -1.6681    -0.0560 C.ar    
  15 C15           -9.9783    -2.1243    -0.1135 C.ar    
  16 C16          -11.0314    -1.2402     0.0386 C.ar    
  17 C17          -10.7872     0.1051     0.2489 C.ar    
  18 C18           -9.4901     0.5716     0.3143 C.ar    
  19 O19            1.1458     2.0854    -0.1065 O.3     
  20 N20          -12.4263    -1.7361    -0.0246 N.pl3   
  21 O21          -12.6440    -2.9200    -0.2101 O.2     
  22 O22          -13.3553    -0.9597     0.1089 O.2     
  23 H23            0.8116    -0.2500     1.0281 H       
  24 H24           -1.2996    -1.5129     1.0904 H       
  25 H25           -3.2292     1.6096    -1.1032 H       
  26 H26           -1.1177     2.8723    -1.1601 H       
  27 H27           -3.5873    -1.7172    -0.0276 H       
  28 H28           -7.4504     2.2761     0.5566 H       
  29 H29           -7.8558    -2.3590    -0.1755 H       
  30 H30          -10.1749    -3.1735    -0.2778 H       
  31 H31          -11.6133     0.7909     0.3662 H       
  32 H32           -9.3006     1.6221     0.4789 H       
  33 H33            1.6996     1.8878    -0.8741 H       
@<TRIPOS>BOND
   1    1    2 ar
   2    1   19 1
   3    1    6 ar
   4    2    3 ar
   5    2   23 1
   6    3    4 ar
   7    3   24 1
   8    4    5 ar
   9    4    7 1
  10    5    6 ar
  11    5   25 1
  12    6   26 1
  13    7    8 1
  14    7   27 1
  15    8    9 2
  16    8   12 1
  17    9   10 1
  18   10   11 2
  19   10   13 1
  20   11   12 1
  21   11   28 1
  22   13   14 ar
  23   13   18 ar
  24   14   15 ar
  25   14   29 1
  26   15   16 ar
  27   15   30 1
  28   16   17 ar
  29   16   20 1
  30   17   18 ar
  31   17   31 1
  32   18   32 1
  33   19   33 1
  34   20   21 2
  35   20   22 2

#	End of record

