#	Name: ASD01209152
#	Creating user name:	WinNT
#	Creation time:	15. 06. 2019 19:11

#	Modifying user name:	WinNT
#	Modification time:	15. 06. 2019 19:11

#	Program:	/corina/corina34_cracker 3.40 0067  02.08.2006

@<TRIPOS>MOLECULE
ASD01209152
  70   71    0    0    0
SMALL
NO_CHARGES


@<TRIPOS>ATOM
   1 O1             0.4639     0.6904    -0.3732 O.3     
   2 O2             2.8460     0.9558     0.7071 O.3     
   3 C3             2.4918     5.7223    -8.9953 C.ar    
   4 C4             1.5643     6.0747    -9.9650 C.ar    
   5 C5             0.2091     6.0725    -9.6679 C.ar    
   6 C6            -0.2235     5.7172    -8.4010 C.ar    
   7 C7             0.7059     5.3621    -7.4227 C.ar    
   8 C8             2.0676     5.3606    -7.7274 C.ar    
   9 O9             3.8181     5.7266    -9.2916 O.3     
  10 C10            4.7238     5.4690    -8.2167 C.3     
  11 O11           -0.6952     6.4195   -10.6213 O.3     
  12 C12           -0.1764     6.8846   -11.8689 C.3     
  13 C13           -1.2129     7.7806   -12.5500 C.3     
  14 C14            0.2488     4.9827    -6.0691 C.2     
  15 N15            1.1482     4.6400    -5.1256 N.am    
  16 O16           -0.9382     4.9797    -5.8069 O.2     
  17 C17            0.7187     4.2835    -3.8537 C.2     
  18 P18            1.9037     1.3951    -0.5222 P.3     
  19 O19            2.5285     0.9764    -1.7969 O.2     
  20 O20           -2.3656     7.0055   -12.8853 O.3     
  21 C21            1.6976     3.2064    -0.5127 C.3     
  22 N22            1.4977     3.9384    -2.8765 N.2     
  23 S23           -0.9136     4.2430    -3.3467 S.3     
  24 C24           -0.4128     3.7203    -1.7406 C.2     
  25 C25            0.9186     3.6297    -1.7313 C.2     
  26 C26            0.2781    -0.7244    -0.4508 C.3     
  27 C27           -1.2047    -1.0548    -0.2685 C.3     
  28 C28            3.2819    -0.3897     0.9114 C.3     
  29 C29            4.1584    -0.4573     2.1637 C.3     
  30 C30            6.0809     6.1022    -8.5303 C.3     
  31 O31            6.6545     5.4591    -9.6703 O.3     
  32 C32            4.8936     3.9583    -8.0438 C.3     
  33 C33           -3.4002     7.7514   -13.5298 C.3     
  34 C34            7.9306     5.9783   -10.0496 C.3     
  35 C35            0.1342     5.6879   -12.7701 C.3     
  36 H36            1.8982     6.3520   -10.9540 H       
  37 H37           -1.2786     5.7161    -8.1705 H       
  38 H38            2.7902     5.0864    -6.9731 H       
  39 H39            4.3268     5.8976    -7.2965 H       
  40 H40            0.7365     7.4538   -11.6932 H       
  41 H41           -1.5001     8.5842   -11.8719 H       
  42 H42           -0.7848     8.2064   -13.4575 H       
  43 H43            2.0953     4.6424    -5.3347 H       
  44 H44            1.1580     3.5060     0.3857 H       
  45 H45            2.6775     3.6837    -0.5240 H       
  46 H46           -1.0685     3.5129    -0.9079 H       
  47 H47            0.6129    -1.0820    -1.4245 H       
  48 H48            0.8578    -1.2105     0.3338 H       
  49 H49           -1.3464    -2.1339    -0.3277 H       
  50 H50           -1.5396    -0.6972     0.7052 H       
  51 H51           -1.7844    -0.5686    -1.0532 H       
  52 H52            2.4144    -1.0371     1.0398 H       
  53 H53            3.8574    -0.7205     0.0469 H       
  54 H54            3.5829    -0.1265     3.0282 H       
  55 H55            4.4908    -1.4835     2.3195 H       
  56 H56            5.0259     0.1901     2.0353 H       
  57 H57            5.9468     7.1632    -8.7409 H       
  58 H58            6.7442     5.9827    -7.6737 H       
  59 H59            5.2906     3.5297    -8.9640 H       
  60 H60            5.5845     3.7618    -7.2239 H       
  61 H61            3.9269     3.5072    -7.8204 H       
  62 H62           -3.7328     8.5544   -12.8721 H       
  63 H63           -3.0175     8.1766   -14.4576 H       
  64 H64           -4.2395     7.0921   -13.7513 H       
  65 H65            7.8349     7.0368   -10.2917 H       
  66 H66            8.6324     5.8563    -9.2245 H       
  67 H67            8.2980     5.4379   -10.9220 H       
  68 H68           -0.7787     5.1187   -12.9458 H       
  69 H69            0.5299     6.0427   -13.7218 H       
  70 H70            0.8726     5.0496   -12.2849 H       
@<TRIPOS>BOND
   1    1   26 1
   2    1   18 1
   3    2   28 1
   4    2   18 1
   5    3    4 ar
   6    3    9 1
   7    3    8 ar
   8    4    5 ar
   9    4   36 1
  10    5    6 ar
  11    5   11 1
  12    6    7 ar
  13    6   37 1
  14    7    8 ar
  15    7   14 1
  16    8   38 1
  17    9   10 1
  18   10   30 1
  19   10   32 1
  20   10   39 1
  21   11   12 1
  22   12   13 1
  23   12   35 1
  24   12   40 1
  25   13   20 1
  26   13   41 1
  27   13   42 1
  28   14   15 am
  29   14   16 2
  30   15   17 1
  31   15   43 1
  32   17   22 2
  33   17   23 1
  34   18   19 2
  35   18   21 1
  36   20   33 1
  37   21   25 1
  38   21   44 1
  39   21   45 1
  40   22   25 1
  41   23   24 1
  42   24   25 2
  43   24   46 1
  44   26   27 1
  45   26   47 1
  46   26   48 1
  47   27   49 1
  48   27   50 1
  49   27   51 1
  50   28   29 1
  51   28   52 1
  52   28   53 1
  53   29   54 1
  54   29   55 1
  55   29   56 1
  56   30   31 1
  57   30   57 1
  58   30   58 1
  59   31   34 1
  60   32   59 1
  61   32   60 1
  62   32   61 1
  63   33   62 1
  64   33   63 1
  65   33   64 1
  66   34   65 1
  67   34   66 1
  68   34   67 1
  69   35   68 1
  70   35   69 1
  71   35   70 1

#	End of record

