#	Name: ASD07300906
#	Creating user name:	WinNT
#	Creation time:	15. 06. 2019 21:10

#	Modifying user name:	WinNT
#	Modification time:	15. 06. 2019 21:10

#	Program:	/corina/corina34_cracker 3.40 0067  02.08.2006

@<TRIPOS>MOLECULE
ASD07300906
  49   53    0    0    0
SMALL
NO_CHARGES


@<TRIPOS>ATOM
   1 N1            -0.3626     1.5814     0.6073 N.am    
   2 C2            -0.1931     0.2352     0.6211 C.2     
   3 N3             0.9627    -0.3362     0.4486 N.2     
   4 C4             2.0817     0.3760     0.2420 C.2     
   5 C5             2.0051     1.7773     0.2107 C.2     
   6 C6             0.6963     2.4005     0.4072 C.2     
   7 N7             3.3853     0.0541     0.0374 N.pl3   
   8 N8             4.1122     1.2409    -0.1195 N.2     
   9 C9             3.3063     2.2618    -0.0188 C.2     
  10 O10            0.5642     3.6116     0.3906 O.2     
  11 C11            3.9367    -1.3024    -0.0105 C.3     
  12 C12            4.6967    -1.4978    -1.3239 C.3     
  13 C13            5.2726    -2.9144    -1.3740 C.3     
  14 C14            6.2281    -3.1184    -0.1966 C.3     
  15 C15            5.4681    -2.9229     1.1168 C.3     
  16 C16            4.8922    -1.5063     1.1669 C.3     
  17 C17           -1.3999    -0.6386     0.8472 C.3     
  18 C18           -1.0623    -2.0096     1.4567 C.3     
  19 C19           -0.8956    -2.5211     0.0161 C.3     
  20 C20           -1.8552    -1.3977    -0.4103 C.3     
  21 C21           -1.4603    -0.7230    -1.6987 C.2     
  22 C22           -0.2641    -0.8967    -2.2687 C.2     
  23 S23           -0.2216     0.0653    -3.7442 S.3     
  24 C24           -1.8165     0.6055    -3.4481 C.2     
  25 N25           -2.2683     0.0822    -2.3586 N.2     
  26 C26           -2.5857     1.5507    -4.3346 C.3     
  27 F27            6.7547    -4.4137    -0.2423 F       
  28 F28            7.2702    -2.1883    -0.2752 F       
  29 H29           -1.2469     1.9582     0.7373 H       
  30 H30            3.5893     3.3010    -0.0979 H       
  31 H31            3.1248    -2.0270     0.0507 H       
  32 H32            4.0160    -1.3525    -2.1627 H       
  33 H33            5.5087    -0.7732    -1.3852 H       
  34 H34            4.4607    -3.6391    -1.3127 H       
  35 H35            5.8141    -3.0537    -2.3097 H       
  36 H36            4.6562    -3.6476     1.1781 H       
  37 H37            6.1488    -3.0682     1.9557 H       
  38 H38            5.7041    -0.7817     1.1056 H       
  39 H39            4.3507    -1.3671     2.1026 H       
  40 H40           -2.2082    -0.1191     1.3618 H       
  41 H41           -0.1366    -2.0156     2.0320 H       
  42 H42           -1.8958    -2.4679     1.9891 H       
  43 H43            0.1151    -2.4037    -0.3747 H       
  44 H44           -1.2977    -3.5220    -0.1412 H       
  45 H45           -2.9054    -1.6887    -0.3884 H       
  46 H46            0.5354    -1.5172    -1.8914 H       
  47 H47           -1.9683     1.8323    -5.1876 H       
  48 H48           -3.4924     1.0602    -4.6885 H       
  49 H49           -2.8526     2.4434    -3.7689 H       
@<TRIPOS>BOND
   1    1    2 1
   2    1    6 am
   3    1   29 1
   4    2    3 2
   5    2   17 1
   6    3    4 1
   7    4    5 2
   8    4    7 1
   9    5    6 1
  10    5    9 1
  11    6   10 2
  12    7    8 1
  13    7   11 1
  14    8    9 2
  15    9   30 1
  16   11   12 1
  17   11   16 1
  18   11   31 1
  19   12   13 1
  20   12   32 1
  21   12   33 1
  22   13   14 1
  23   13   34 1
  24   13   35 1
  25   14   15 1
  26   14   27 1
  27   14   28 1
  28   15   16 1
  29   15   36 1
  30   15   37 1
  31   16   38 1
  32   16   39 1
  33   17   18 1
  34   17   20 1
  35   17   40 1
  36   18   19 1
  37   18   41 1
  38   18   42 1
  39   19   20 1
  40   19   43 1
  41   19   44 1
  42   20   21 1
  43   20   45 1
  44   21   22 2
  45   21   25 1
  46   22   23 1
  47   22   46 1
  48   23   24 1
  49   24   25 2
  50   24   26 1
  51   26   47 1
  52   26   48 1
  53   26   49 1

#	End of record

