#	Name: ASD07930111
#	Creating user name:	WinNT
#	Creation time:	15. 06. 2019 21:11

#	Modifying user name:	WinNT
#	Modification time:	15. 06. 2019 21:11

#	Program:	/corina/corina34_cracker 3.40 0067  02.08.2006

@<TRIPOS>MOLECULE
ASD07930111
  36   36    0    0    0
SMALL
NO_CHARGES


@<TRIPOS>ATOM
   1 C1            -0.0187     1.5258     0.0104 C.3     
   2 C2             0.0021    -0.0041     0.0020 C.3     
   3 C3             0.8475    -0.5091     1.1729 C.3     
   4 N4             0.5820    -0.4790    -1.2614 N.3     
   5 O5             1.3220     2.0204     0.0003 O.3     
   6 C6             1.4817     3.3702     0.0060 C.ar    
   7 C7             2.7561     3.9188    -0.0032 C.ar    
   8 C8             2.9164     5.2907     0.0021 C.ar    
   9 C9             1.8070     6.1178     0.0167 C.ar    
  10 C10            0.5356     5.5727     0.0264 C.ar    
  11 C11            0.3710     4.2009     0.0153 C.ar    
  12 C12            5.2352     3.8706    -0.0263 C.3     
  13 C13            3.9645     3.0185    -0.0186 C.3     
  14 C14            3.9541     2.1296     1.2267 C.3     
  15 C15            3.9310     2.1413    -1.2716 C.3     
  16 F16            5.2658     4.6728     1.1194 F       
  17 F17            6.3570     3.0348    -0.0406 F       
  18 F18            5.2447     4.6834    -1.1650 F       
  19 Cl19           2.0111     7.8418     0.0234 Cl      
  20 H20           -0.5459     1.8868    -0.8726 H       
  21 H21           -0.5289     1.8773     0.9072 H       
  22 H22           -1.0158    -0.3818     0.0993 H       
  23 H23            1.8654    -0.1314     1.0757 H       
  24 H24            0.4173    -0.1567     2.1104 H       
  25 H25            0.8623    -1.5990     1.1669 H       
  26 H26            1.5018    -0.0902    -1.4058 H       
  27 H27            0.6068    -1.4872    -1.2914 H       
  28 H28            3.9082     5.7181    -0.0047 H       
  29 H29           -0.3290     6.2198     0.0381 H       
  30 H30           -0.6217     3.7757     0.0179 H       
  31 H31            3.0488     1.5226     1.2322 H       
  32 H32            4.8281     1.4785     1.2156 H       
  33 H33            3.9779     2.7546     2.1194 H       
  34 H34            3.9384     2.7745    -2.1588 H       
  35 H35            4.8050     1.4901    -1.2827 H       
  36 H36            3.0257     1.5342    -1.2661 H       
@<TRIPOS>BOND
   1    1    2 1
   2    1    5 1
   3    1   20 1
   4    1   21 1
   5    2    3 1
   6    2    4 1
   7    2   22 1
   8    3   23 1
   9    3   24 1
  10    3   25 1
  11    4   26 1
  12    4   27 1
  13    5    6 1
  14    6    7 ar
  15    6   11 ar
  16    7    8 ar
  17    7   13 1
  18    8    9 ar
  19    8   28 1
  20    9   10 ar
  21    9   19 1
  22   10   11 ar
  23   10   29 1
  24   11   30 1
  25   12   13 1
  26   12   16 1
  27   12   17 1
  28   12   18 1
  29   13   14 1
  30   13   15 1
  31   14   31 1
  32   14   32 1
  33   14   33 1
  34   15   34 1
  35   15   35 1
  36   15   36 1

#	End of record

