#	Name: ASD01812132
#	Creating user name:	WinNT
#	Creation time:	15. 06. 2019 19:28

#	Modifying user name:	WinNT
#	Modification time:	15. 06. 2019 19:28

#	Program:	/corina/corina34_cracker 3.40 0067  02.08.2006

@<TRIPOS>MOLECULE
ASD01812132
  57   62    0    0    0
SMALL
NO_CHARGES


@<TRIPOS>ATOM
   1 C1            -0.0630     1.3304    -0.2936 C.ar    
   2 C2            -0.0249    -0.0515    -0.1383 C.ar    
   3 C3             1.1616    -0.7219    -0.1098 C.ar    
   4 C4             2.3656    -0.0126    -0.2386 C.ar    
   5 C5             2.3229     1.3942    -0.3966 C.ar    
   6 C6             1.0885     2.0511    -0.4216 C.ar    
   7 C7             3.6085    -0.6792    -0.2133 C.ar    
   8 C8             4.7719     0.0030    -0.3379 C.ar    
   9 C9             4.7853     1.3974    -0.4968 C.ar    
  10 C10            3.5807     2.1234    -0.5299 C.ar    
  11 C11            6.0405     2.1472    -0.6338 C.2     
  12 N12            5.9521     3.4893    -0.7834 N.am    
  13 C13            4.7419     4.1016    -0.8034 C.2     
  14 N14            3.6176     3.4575    -0.6842 N.2     
  15 O15            7.1196     1.5830    -0.6131 O.2     
  16 C16            3.6424    -2.1763    -0.0442 C.3     
  17 C17            5.0609    -2.6656    -0.1843 C.ar    
  18 C18            5.8788    -2.8040     0.9222 C.ar    
  19 C19            7.1796    -3.2574     0.7550 C.ar    
  20 N20            7.6562    -3.5596    -0.4337 N.ar    
  21 C21            6.9180    -3.4464    -1.5299 C.ar    
  22 C22            5.5867    -2.9983    -1.4351 C.ar    
  23 C23            7.1728     4.2870    -0.9245 C.3     
  24 C24            7.2520     5.3074     0.2152 C.3     
  25 C25            8.4904     6.1862     0.0138 C.3     
  26 C26            8.4135     6.8555    -1.3609 C.3     
  27 O27            8.3105     5.8517    -2.3728 O.3     
  28 C28            7.1468     5.0296    -2.2630 C.3     
  29 O29            7.3507     4.6215     1.4649 O.3     
  30 Cl30           5.2838    -2.4137     2.5057 Cl      
  31 N31            7.1656    -3.6899    -2.8600 N.pl3   
  32 C32            6.0507    -3.4091    -3.6033 C.2     
  33 C33            5.0607    -2.9871    -2.8011 C.2     
  34 C34            8.4359    -4.1782    -3.4023 C.3     
  35 H35           -1.0157     1.8385    -0.3176 H       
  36 H36           -0.9491    -0.6013    -0.0385 H       
  37 H37            1.1751    -1.7949     0.0118 H       
  38 H38            1.0468     3.1235    -0.5421 H       
  39 H39            5.7073    -0.5364    -0.3142 H       
  40 H40            4.7099     5.1743    -0.9238 H       
  41 H41            3.2633    -2.4390     0.9434 H       
  42 H42            3.0202    -2.6424    -0.8081 H       
  43 H43            7.8160    -3.3645     1.6210 H       
  44 H44            8.0433     3.6321    -0.8882 H       
  45 H45            6.3578     5.9306     0.2094 H       
  46 H46            8.5244     6.9509     0.7898 H       
  47 H47            9.3875     5.5696     0.0691 H       
  48 H48            7.5379     7.5034    -1.4013 H       
  49 H49            9.3128     7.4485    -1.5273 H       
  50 H50            7.1336     4.3074    -3.0792 H       
  51 H51            6.2547     5.6537    -2.3152 H       
  52 H52            7.4047     5.2077     2.2321 H       
  53 H53            5.9778    -3.5142    -4.6757 H       
  54 H54            4.0664    -2.6951    -3.1053 H       
  55 H55            8.4287    -5.2680    -3.4195 H       
  56 H56            8.5676    -3.7997    -4.4160 H       
  57 H57            9.2566    -3.8301    -2.7750 H       
@<TRIPOS>BOND
   1    1    2 ar
   2    1    6 ar
   3    1   35 1
   4    2    3 ar
   5    2   36 1
   6    3    4 ar
   7    3   37 1
   8    4    5 ar
   9    4    7 ar
  10    5    6 ar
  11    5   10 ar
  12    6   38 1
  13    7    8 ar
  14    7   16 1
  15    8    9 ar
  16    8   39 1
  17    9   10 ar
  18    9   11 1
  19   10   14 1
  20   11   12 am
  21   11   15 2
  22   12   13 1
  23   12   23 1
  24   13   14 2
  25   13   40 1
  26   16   17 1
  27   16   41 1
  28   16   42 1
  29   17   18 ar
  30   17   22 ar
  31   18   19 ar
  32   18   30 1
  33   19   20 ar
  34   19   43 1
  35   20   21 ar
  36   21   22 ar
  37   21   31 1
  38   22   33 1
  39   23   24 1
  40   23   28 1
  41   23   44 1
  42   24   25 1
  43   24   29 1
  44   24   45 1
  45   25   26 1
  46   25   46 1
  47   25   47 1
  48   26   27 1
  49   26   48 1
  50   26   49 1
  51   27   28 1
  52   28   50 1
  53   28   51 1
  54   29   52 1
  55   31   32 1
  56   31   34 1
  57   32   33 2
  58   32   53 1
  59   33   54 1
  60   34   55 1
  61   34   56 1
  62   34   57 1

#	End of record

