#	Name: ASD01916198
#	Creating user name:	WinNT
#	Creation time:	15. 06. 2019 20:06

#	Modifying user name:	WinNT
#	Modification time:	15. 06. 2019 20:06

#	Program:	/corina/corina34_cracker 3.40 0067  02.08.2006

@<TRIPOS>MOLECULE
ASD01916198
  45   47    0    0    0
SMALL
NO_CHARGES


@<TRIPOS>ATOM
   1 C1            -0.3710     1.7004     0.1175 C.ar    
   2 C2            -0.4959     0.3497     0.3876 C.ar    
   3 N3             0.5518    -0.3744     0.7195 N.ar    
   4 C4             1.7671     0.1536     0.8094 C.ar    
   5 C5             1.9728     1.5054     0.5526 C.ar    
   6 C6             0.8840     2.2982     0.1990 C.ar    
   7 C7            -1.8518    -0.3024     0.3009 C.3     
   8 O8             1.0421     3.6212    -0.0600 O.3     
   9 C9             2.2911     4.1468     0.0441 C.ar    
  10 C10            3.2306     3.9592    -0.9647 C.ar    
  11 N11            4.4356     4.4869    -0.8259 N.ar    
  12 C12            4.7501     5.1817     0.2489 C.ar    
  13 N13            3.8882     5.3814     1.2257 N.ar    
  14 C14            2.6613     4.8913     1.1594 C.ar    
  15 C15            2.9141    -0.7045     1.1869 C.2     
  16 N16            2.7217    -2.0148     1.4373 N.am    
  17 O17            4.0284    -0.2271     1.2707 O.2     
  18 C18            3.8130    -2.8434     1.6888 C.ar    
  19 C19            3.6196    -4.2127     1.8313 C.ar    
  20 C20            4.7124    -5.0244     2.0808 C.ar    
  21 C21            5.9656    -4.4360     2.1795 C.ar    
  22 C22            6.0844    -3.0684     2.0270 C.ar    
  23 N23            5.0255    -2.3204     1.7844 N.ar    
  24 C24           -1.7842    -1.4944    -0.6558 C.3     
  25 C25            7.4422    -2.4233     2.1336 C.3     
  26 C26            7.7198    -1.6074     0.8694 C.3     
  27 H27           -1.2368     2.2843    -0.1579 H       
  28 H28            2.9616     1.9334     0.6268 H       
  29 H29           -2.1531    -0.6470     1.2901 H       
  30 H30           -2.5793     0.4199    -0.0694 H       
  31 H31            2.9798     3.3906    -1.8480 H       
  32 H32            5.7427     5.5991     0.3318 H       
  33 H33            1.9586     5.0631     1.9613 H       
  34 H34            1.8234    -2.3808     1.4425 H       
  35 H35            2.6300    -4.6372     1.7487 H       
  36 H36            4.5927    -6.0915     2.1965 H       
  37 H37            6.8387    -5.0412     2.3739 H       
  38 H38           -2.7648    -1.9661    -0.7185 H       
  39 H39           -1.4829    -1.1498    -1.6450 H       
  40 H40           -1.0566    -2.2167    -0.2855 H       
  41 H41            7.4649    -1.7658     3.0026 H       
  42 H42            8.2038    -3.1955     2.2422 H       
  43 H43            7.6971    -2.2649     0.0003 H       
  44 H44            6.9582    -0.8353     0.7608 H       
  45 H45            8.7019    -1.1408     0.9465 H       
@<TRIPOS>BOND
   1    1    2 ar
   2    1    6 ar
   3    1   27 1
   4    2    3 ar
   5    2    7 1
   6    3    4 ar
   7    4    5 ar
   8    4   15 1
   9    5    6 ar
  10    5   28 1
  11    6    8 1
  12    7   24 1
  13    7   29 1
  14    7   30 1
  15    8    9 1
  16    9   10 ar
  17    9   14 ar
  18   10   11 ar
  19   10   31 1
  20   11   12 ar
  21   12   13 ar
  22   12   32 1
  23   13   14 ar
  24   14   33 1
  25   15   16 am
  26   15   17 2
  27   16   18 1
  28   16   34 1
  29   18   19 ar
  30   18   23 ar
  31   19   20 ar
  32   19   35 1
  33   20   21 ar
  34   20   36 1
  35   21   22 ar
  36   21   37 1
  37   22   23 ar
  38   22   25 1
  39   24   38 1
  40   24   39 1
  41   24   40 1
  42   25   26 1
  43   25   41 1
  44   25   42 1
  45   26   43 1
  46   26   44 1
  47   26   45 1

#	End of record

