#	Name: ASD01882326
#	Creating user name:	WinNT
#	Creation time:	15. 06. 2019 19:44

#	Modifying user name:	WinNT
#	Modification time:	15. 06. 2019 19:44

#	Program:	/corina/corina34_cracker 3.40 0067  02.08.2006

@<TRIPOS>MOLECULE
ASD01882326
  52   56    0    0    0
SMALL
NO_CHARGES


@<TRIPOS>ATOM
   1 C1             1.2816     1.4557     1.0373 C.2     
   2 C2             1.2125     0.0519     1.0670 C.2     
   3 C3             1.5528    -0.6564    -0.0541 C.2     
   4 C4             1.9652     0.0327    -1.2149 C.2     
   5 C5             2.0242     1.3789    -1.2211 C.2     
   6 N6             1.6872     2.0945    -0.1092 N.pl3   
   7 N7             1.2438     3.5551     1.4109 N.2     
   8 N8             1.0211     2.3989     1.9298 N.2     
   9 C9             1.6493     3.4280     0.1748 C.2     
  10 N10            1.4928    -2.0480    -0.0491 N.pl3   
  11 C11            2.7115    -2.8504    -0.2214 C.3     
  12 C12            2.4929    -3.8381    -1.3718 C.3     
  13 C13            1.2317    -4.6611    -1.0996 C.3     
  14 C14            0.0192    -3.7303    -1.0252 C.3     
  15 C15            0.2105    -2.7414     0.1347 C.3     
  16 C16            1.0293    -5.6726    -2.2296 C.3     
  17 F17            2.1368    -6.5246    -2.2968 F       
  18 F18           -0.1236    -6.4251    -1.9809 F       
  19 F19            0.8895    -4.9928    -3.4443 F       
  20 C20            1.3831    -5.3939     0.2086 C.ar    
  21 C21            1.5795    -4.6850     1.3788 C.ar    
  22 C22            1.7180    -5.3584     2.5804 C.ar    
  23 C23            1.6596    -6.7417     2.6084 C.ar    
  24 C24            1.4632    -7.4482     1.4373 C.ar    
  25 C25            1.3197    -6.7744     0.2385 C.ar    
  26 F26            1.9105    -4.6666     3.7247 F       
  27 C27            2.0070     4.5499    -0.7655 C.3     
  28 C28            0.7595     4.9870    -1.5360 C.3     
  29 C29            0.8890     6.1987    -2.4611 C.3     
  30 C30            0.7628     4.7938    -3.0537 C.3     
  31 Cl31           0.7027    -0.7730     2.5070 Cl      
  32 H32            2.2351    -0.5214    -2.1018 H       
  33 H33            2.3414     1.8963    -2.1145 H       
  34 H34            3.5502    -2.1952    -0.4567 H       
  35 H35            2.9204    -3.3994     0.6968 H       
  36 H36            2.3741    -3.2885    -2.3056 H       
  37 H37            3.3525    -4.5040    -1.4479 H       
  38 H38           -0.0763    -3.1817    -1.9623 H       
  39 H39           -0.8818    -4.3194    -0.8546 H       
  40 H40            0.2197    -3.2816     1.0814 H       
  41 H41           -0.6014    -2.0142     0.1345 H       
  42 H42            1.6252    -3.6062     1.3557 H       
  43 H43            1.7679    -7.2681     3.5452 H       
  44 H44            1.4176    -8.5271     1.4589 H       
  45 H45            1.1617    -7.3272    -0.6757 H       
  46 H46            2.3951     5.3931    -0.1941 H       
  47 H47            2.7664     4.2069    -1.4682 H       
  48 H48           -0.1873     4.8519    -1.0131 H       
  49 H49            0.0273     6.8606    -2.5472 H       
  50 H50            1.8630     6.6845    -2.5209 H       
  51 H51            1.6537     4.3553    -3.5033 H       
  52 H52           -0.1820     4.5314    -3.5297 H       
@<TRIPOS>BOND
   1    1    2 1
   2    1    6 1
   3    1    8 2
   4    2    3 2
   5    2   31 1
   6    3    4 1
   7    3   10 1
   8    4    5 2
   9    4   32 1
  10    5    6 1
  11    5   33 1
  12    6    9 1
  13    7    8 1
  14    7    9 2
  15    9   27 1
  16   10   11 1
  17   10   15 1
  18   11   12 1
  19   11   34 1
  20   11   35 1
  21   12   13 1
  22   12   36 1
  23   12   37 1
  24   13   14 1
  25   13   16 1
  26   13   20 1
  27   14   15 1
  28   14   38 1
  29   14   39 1
  30   15   40 1
  31   15   41 1
  32   16   17 1
  33   16   18 1
  34   16   19 1
  35   20   21 ar
  36   20   25 ar
  37   21   22 ar
  38   21   42 1
  39   22   23 ar
  40   22   26 1
  41   23   24 ar
  42   23   43 1
  43   24   25 ar
  44   24   44 1
  45   25   45 1
  46   27   28 1
  47   27   46 1
  48   27   47 1
  49   28   29 1
  50   28   30 1
  51   28   48 1
  52   29   30 1
  53   29   49 1
  54   29   50 1
  55   30   51 1
  56   30   52 1

#	End of record

