#	Name: ASD01720186
#	Creating user name:	WinNT
#	Creation time:	15. 06. 2019 19:23

#	Modifying user name:	WinNT
#	Modification time:	15. 06. 2019 19:23

#	Program:	/corina/corina34_cracker 3.40 0067  02.08.2006

@<TRIPOS>MOLECULE
ASD01720186
  54   57    0    0    0
SMALL
NO_CHARGES


@<TRIPOS>ATOM
   1 C1            -0.6127     1.7872     0.7773 C.ar    
   2 N2            -0.7354     0.4928     1.0294 N.ar    
   3 C3             0.3108    -0.3170     0.9566 C.ar    
   4 N4             1.5142     0.1302     0.6316 N.ar    
   5 C5             1.7091     1.4173     0.3660 C.ar    
   6 C6             0.6263     2.2945     0.4340 C.ar    
   7 N7             2.9738     1.8834     0.0256 N.am    
   8 C8             3.3621     3.2976    -0.0889 C.3     
   9 C9             4.8501     3.2386    -0.4847 C.3     
  10 O10            5.1412     1.8125    -0.5510 O.3     
  11 C11            4.0394     1.1178    -0.2462 C.2     
  12 N12            0.1418    -1.6637     1.2274 N.pl3   
  13 C13           -1.1815    -2.1777     1.5892 C.3     
  14 C14           -1.0262    -3.4383     2.4003 C.ar    
  15 C15           -1.9748    -2.4841     0.3173 C.3     
  16 N16           -1.7561    -3.5924     3.4872 N.ar    
  17 C17           -1.6512    -4.6826     4.2275 C.ar    
  18 C18           -0.7503    -5.6782     3.8415 C.ar    
  19 C19            0.0026    -5.4729     2.6827 C.ar    
  20 N20           -0.1686    -4.3551     1.9979 N.ar    
  21 C21            3.1908     4.0122     1.2531 C.3     
  22 C22            4.0519     3.3213     2.3124 C.3     
  23 C23            3.6280     5.4718     1.1130 C.3     
  24 O24            4.0070    -0.0965    -0.2214 O.2     
  25 C25           -0.5971    -6.9193     4.6404 C.ar    
  26 C26            0.3065    -7.9015     4.2400 C.ar    
  27 C27            0.4453    -9.0536     4.9871 C.ar    
  28 C28           -0.3105    -9.2342     6.1314 C.ar    
  29 C29           -1.2093    -8.2626     6.5333 C.ar    
  30 C30           -1.3520    -7.1040     5.7968 C.ar    
  31 H31           -1.4723     2.4385     0.8349 H       
  32 H32            0.7535     3.3461     0.2235 H       
  33 H33            2.7789     3.7932    -0.8650 H       
  34 H34            5.0057     3.7060    -1.4570 H       
  35 H35            5.4669     3.7195     0.2746 H       
  36 H36            0.8996    -2.2672     1.1777 H       
  37 H37           -1.7132    -1.4301     2.1778 H       
  38 H38           -1.4431    -3.2317    -0.2713 H       
  39 H39           -2.9594    -2.8665     0.5865 H       
  40 H40           -2.0871    -1.5723    -0.2694 H       
  41 H41           -2.2522    -4.8016     5.1169 H       
  42 H42            0.7103    -6.2175     2.3493 H       
  43 H43            2.1439     3.9738     1.5541 H       
  44 H44            3.8035     2.2606     2.3472 H       
  45 H45            5.1052     3.4397     2.0582 H       
  46 H46            3.8603     3.7715     3.2864 H       
  47 H47            3.0806     5.9380     0.2939 H       
  48 H48            3.4177     6.0046     2.0404 H       
  49 H49            4.6972     5.5124     0.9051 H       
  50 H50            0.8968    -7.7616     3.3465 H       
  51 H51            1.1451    -9.8158     4.6775 H       
  52 H52           -0.1987   -10.1373     6.7131 H       
  53 H53           -1.7972    -8.4089     7.4274 H       
  54 H54           -2.0509    -6.3441     6.1139 H       
@<TRIPOS>BOND
   1    1    2 ar
   2    1    6 ar
   3    1   31 1
   4    2    3 ar
   5    3    4 ar
   6    3   12 1
   7    4    5 ar
   8    5    6 ar
   9    5    7 1
  10    6   32 1
  11    7    8 1
  12    7   11 am
  13    8    9 1
  14    8   21 1
  15    8   33 1
  16    9   10 1
  17    9   34 1
  18    9   35 1
  19   10   11 1
  20   11   24 2
  21   12   13 1
  22   12   36 1
  23   13   14 1
  24   13   15 1
  25   13   37 1
  26   14   16 ar
  27   14   20 ar
  28   15   38 1
  29   15   39 1
  30   15   40 1
  31   16   17 ar
  32   17   18 ar
  33   17   41 1
  34   18   19 ar
  35   18   25 1
  36   19   20 ar
  37   19   42 1
  38   21   22 1
  39   21   23 1
  40   21   43 1
  41   22   44 1
  42   22   45 1
  43   22   46 1
  44   23   47 1
  45   23   48 1
  46   23   49 1
  47   25   26 ar
  48   25   30 ar
  49   26   27 ar
  50   26   50 1
  51   27   28 ar
  52   27   51 1
  53   28   29 ar
  54   28   52 1
  55   29   30 ar
  56   29   53 1
  57   30   54 1

#	End of record

