#	Name: ASD01883189
#	Creating user name:	WinNT
#	Creation time:	15. 06. 2019 19:45

#	Modifying user name:	WinNT
#	Modification time:	15. 06. 2019 19:45

#	Program:	/corina/corina34_cracker 3.40 0067  02.08.2006

@<TRIPOS>MOLECULE
ASD01883189
  53   55    0    0    0
SMALL
NO_CHARGES


@<TRIPOS>ATOM
   1 N1            -0.0678     1.2324     1.3319 N.am    
   2 C2            -0.0482     0.0631     0.6657 C.2     
   3 C3            -1.2577    -0.6356     0.4289 C.2     
   4 C4            -2.4607    -0.0820     0.9020 C.2     
   5 C5            -2.4149     1.1453     1.5924 C.2     
   6 C6            -1.2292     1.7635     1.7932 C.2     
   7 O7             1.0091    -0.3941     0.2661 O.2     
   8 C8            -1.2553    -1.8807    -0.2786 C.1     
   9 N9            -1.2534    -2.8684    -0.8398 N.1     
  10 C10            1.1906     1.9438     1.5694 C.3     
  11 C11            1.4641     2.8988     0.4058 C.3     
  12 C12            2.7784     3.6418     0.6538 C.3     
  13 C13            3.9385     2.6444     0.6402 C.3     
  14 C14            2.9898     4.6851    -0.4451 C.3     
  15 C15           -3.7473    -0.7734     0.6789 C.ar    
  16 C16           -4.4767    -1.2632     1.7652 C.ar    
  17 C17           -5.6758    -1.9068     1.5533 C.ar    
  18 C18           -6.1603    -2.0696     0.2607 C.ar    
  19 C19           -5.4375    -1.5838    -0.8226 C.ar    
  20 C20           -4.2404    -0.9340    -0.6183 C.ar    
  21 O21           -7.3421    -2.7052     0.0558 O.3     
  22 C22           -8.4782    -1.9601     0.0710 C.ar    
  23 C23           -9.7152    -2.5788    -0.0254 C.ar    
  24 C24          -10.8726    -1.8156    -0.0091 C.ar    
  25 C25          -10.7904    -0.4351     0.1035 C.ar    
  26 C26           -9.5563     0.1794     0.1995 C.ar    
  27 C27           -8.4017    -0.5790     0.1888 C.ar    
  28 O28          -12.0865    -2.4192    -0.1039 O.3     
  29 C29          -13.2363    -1.5710    -0.0805 C.3     
  30 H30           -3.3260     1.5898     1.9650 H       
  31 H31           -1.2065     2.7039     2.3238 H       
  32 H32            1.1172     2.5124     2.4965 H       
  33 H33            2.0056     1.2242     1.6481 H       
  34 H34            1.5376     2.3303    -0.5213 H       
  35 H35            0.6492     3.6184     0.3271 H       
  36 H36            2.7376     4.1384     1.6233 H       
  37 H37            3.9793     2.1478    -0.3293 H       
  38 H38            4.8749     3.1738     0.8169 H       
  39 H39            3.7880     1.9012     1.4231 H       
  40 H40            2.1632     5.3956    -0.4354 H       
  41 H41            3.9261     5.2144    -0.2684 H       
  42 H42            3.0305     4.1885    -1.4146 H       
  43 H43           -4.1005    -1.1376     2.7698 H       
  44 H44           -6.2402    -2.2856     2.3925 H       
  45 H45           -5.8172    -1.7122    -1.8255 H       
  46 H46           -3.6793    -0.5568    -1.4606 H       
  47 H47           -9.7770    -3.6534    -0.1134 H       
  48 H48          -11.6918     0.1598     0.1159 H       
  49 H49           -9.4945     1.2541     0.2867 H       
  50 H50           -7.4384    -0.0964     0.2639 H       
  51 H51          -13.1901    -0.8732    -0.9166 H       
  52 H52          -14.1376    -2.1784    -0.1635 H       
  53 H53          -13.2583    -1.0144     0.8564 H       
@<TRIPOS>BOND
   1    1    2 am
   2    1   10 1
   3    1    6 1
   4    2    3 1
   5    2    7 2
   6    3    4 2
   7    3    8 1
   8    4    5 1
   9    4   15 1
  10    5    6 2
  11    5   30 1
  12    6   31 1
  13    8    9 3
  14   10   11 1
  15   10   32 1
  16   10   33 1
  17   11   12 1
  18   11   34 1
  19   11   35 1
  20   12   13 1
  21   12   14 1
  22   12   36 1
  23   13   37 1
  24   13   38 1
  25   13   39 1
  26   14   40 1
  27   14   41 1
  28   14   42 1
  29   15   16 ar
  30   15   20 ar
  31   16   17 ar
  32   16   43 1
  33   17   18 ar
  34   17   44 1
  35   18   19 ar
  36   18   21 1
  37   19   20 ar
  38   19   45 1
  39   20   46 1
  40   21   22 1
  41   22   23 ar
  42   22   27 ar
  43   23   24 ar
  44   23   47 1
  45   24   25 ar
  46   24   28 1
  47   25   26 ar
  48   25   48 1
  49   26   27 ar
  50   26   49 1
  51   27   50 1
  52   28   29 1
  53   29   51 1
  54   29   52 1
  55   29   53 1

#	End of record

