#	Name: ASD01910966
#	Creating user name:	WinNT
#	Creation time:	15. 06. 2019 19:56

#	Modifying user name:	WinNT
#	Modification time:	15. 06. 2019 19:56

#	Program:	/corina/corina34_cracker 3.40 0067  02.08.2006

@<TRIPOS>MOLECULE
ASD01910966
  52   55    0    0    0
SMALL
NO_CHARGES


@<TRIPOS>ATOM
   1 N1             0.3331     1.5108     0.2410 N.3     
   2 C2             0.0960     0.0711     0.4110 C.3     
   3 C3            -1.3643    -0.1585     0.8148 C.3     
   4 N4            -2.2314     0.5023    -0.1725 N.am    
   5 C5            -1.9669     1.9120    -0.4980 C.3     
   6 C6            -0.4829     2.0601    -0.8500 C.3     
   7 C7            -3.2414    -0.1664    -0.7635 C.2     
   8 C8            -4.1722     0.5461    -1.6649 C.ar    
   9 C9            -4.6322    -0.0747    -2.8284 C.ar    
  10 C10           -5.5016     0.5886    -3.6721 C.ar    
  11 C11           -5.9224     1.8685    -3.3728 C.ar    
  12 C12           -5.4697     2.5027    -2.2115 C.ar    
  13 C13           -4.5966     1.8357    -1.3525 C.ar    
  14 C14           -5.9065     3.8309    -1.9020 C.1     
  15 O15           -3.3871    -1.3551    -0.5556 O.2     
  16 C16           -6.2645     4.9198    -1.6482 C.1     
  17 C17           -6.7012     6.2480    -1.3387 C.ar    
  18 C18           -6.2554     6.8911    -0.1814 C.ar    
  19 N19           -6.6575     8.1124     0.1025 N.ar    
  20 C20           -7.4871     8.7731    -0.6820 C.ar    
  21 C21           -7.9747     8.2063    -1.8463 C.ar    
  22 C22           -7.5788     6.9275    -2.1945 C.ar    
  23 C23            1.7592     1.7873     0.0224 C.3     
  24 C24            1.9510     3.2585    -0.2416 C.ar    
  25 C25            2.2174     3.7017    -1.5233 C.ar    
  26 C26            2.3930     5.0514    -1.7664 C.ar    
  27 C27            2.3024     5.9589    -0.7281 C.ar    
  28 C28            2.0358     5.5171     0.5555 C.ar    
  29 C29            1.8547     4.1662     0.7981 C.ar    
  30 Cl30           1.5195     3.6101     2.4081 Cl      
  31 Cl31           1.9224     6.6566     1.8603 Cl      
  32 H32            0.2992    -0.4443    -0.5277 H       
  33 H33            0.7537    -0.3165     1.1890 H       
  34 H34           -1.5761    -1.2276     0.8307 H       
  35 H35           -1.5426     0.2676     1.8021 H       
  36 H36           -2.5770     2.2118    -1.3500 H       
  37 H37           -2.2031     2.5372     0.3631 H       
  38 H38           -0.2450     3.1150    -0.9866 H       
  39 H39           -0.2716     1.5170    -1.7712 H       
  40 H40           -4.3069    -1.0760    -3.0693 H       
  41 H41           -5.8536     0.1035    -4.5705 H       
  42 H42           -6.6023     2.3815    -4.0368 H       
  43 H43           -4.2435     2.3203    -0.4541 H       
  44 H44           -5.5757     6.3822     0.4860 H       
  45 H45           -7.7912     9.7733    -0.4108 H       
  46 H46           -8.6539     8.7584    -2.4790 H       
  47 H47           -7.9440     6.4612    -3.0976 H       
  48 H48            2.3250     1.5004     0.9088 H       
  49 H49            2.1129     1.2151    -0.8353 H       
  50 H50            2.2888     2.9932    -2.3353 H       
  51 H51            2.6015     5.3966    -2.7683 H       
  52 H52            2.4400     7.0131    -0.9187 H       
@<TRIPOS>BOND
   1    1    2 1
   2    1   23 1
   3    1    6 1
   4    2    3 1
   5    2   32 1
   6    2   33 1
   7    3    4 1
   8    3   34 1
   9    3   35 1
  10    4    5 1
  11    4    7 am
  12    5    6 1
  13    5   36 1
  14    5   37 1
  15    6   38 1
  16    6   39 1
  17    7    8 1
  18    7   15 2
  19    8    9 ar
  20    8   13 ar
  21    9   10 ar
  22    9   40 1
  23   10   11 ar
  24   10   41 1
  25   11   12 ar
  26   11   42 1
  27   12   13 ar
  28   12   14 1
  29   13   43 1
  30   14   16 3
  31   16   17 1
  32   17   18 ar
  33   17   22 ar
  34   18   19 ar
  35   18   44 1
  36   19   20 ar
  37   20   21 ar
  38   20   45 1
  39   21   22 ar
  40   21   46 1
  41   22   47 1
  42   23   24 1
  43   23   48 1
  44   23   49 1
  45   24   25 ar
  46   24   29 ar
  47   25   26 ar
  48   25   50 1
  49   26   27 ar
  50   26   51 1
  51   27   28 ar
  52   27   52 1
  53   28   29 ar
  54   28   31 1
  55   29   30 1

#	End of record

