#	Name: ASD01870627
#	Creating user name:	WinNT
#	Creation time:	15. 06. 2019 19:39

#	Modifying user name:	WinNT
#	Modification time:	15. 06. 2019 19:39

#	Program:	/corina/corina34_cracker 3.40 0067  02.08.2006

@<TRIPOS>MOLECULE
ASD01870627
  44   47    0    0    0
SMALL
NO_CHARGES


@<TRIPOS>ATOM
   1 C1             0.0293     1.3463     0.1071 C.ar    
   2 C2             0.0571    -0.0394     0.1281 C.ar    
   3 C3             1.2624    -0.7161     0.1371 C.ar    
   4 C4             2.4602    -0.0183     0.1253 C.ar    
   5 C5             2.4479     1.3671     0.1044 C.ar    
   6 C6             1.2186     2.0571     0.0952 C.ar    
   7 C7             3.4965     2.4087     0.0880 C.2     
   8 N8             2.9019     3.6153     0.0707 N.am    
   9 C9             1.5620     3.4946     0.0741 C.2     
  10 C10            3.5886     4.8384     0.0527 C.ar    
  11 C11            2.8797     6.0316     0.0355 C.ar    
  12 C12            3.5580     7.2386     0.0179 C.ar    
  13 C13            4.9512     7.2524     0.0173 C.ar    
  14 C14            5.6558     6.0573     0.0345 C.ar    
  15 C15            4.9770     4.8546     0.0579 C.ar    
  16 O16            0.7676     4.4131     0.0609 O.2     
  17 O17            4.6944     2.2087     0.0904 O.2     
  18 N18            5.6405     8.4728    -0.0010 N.am    
  19 C19            6.8889     8.5341    -0.5053 C.2     
  20 C20            7.5765     9.8253    -0.6055 C.2     
  21 O21            7.4455     7.5177    -0.8777 O.2     
  22 C22            8.8355    10.0283    -1.0941 C.2     
  23 C23            9.0866    11.4063    -1.0026 C.2     
  24 C24            7.9841    11.9769    -0.4689 C.2     
  25 O25            7.0742    11.0218    -0.2364 O.3     
  26 C26            9.7736     8.9765    -1.6277 C.3     
  27 O27            2.8655     8.4086     0.0006 O.3     
  28 C28            1.4393     8.3185     0.0017 C.3     
  29 H29           -0.9154     1.8697     0.0957 H       
  30 H30           -0.8694    -0.5943     0.1378 H       
  31 H31            1.2710    -1.7959     0.1538 H       
  32 H32            3.3989    -0.5523     0.1328 H       
  33 H33            1.7998     6.0186     0.0356 H       
  34 H34            6.7357     6.0675     0.0338 H       
  35 H35            5.5269     3.9253     0.0761 H       
  36 H36            5.2191     9.2732     0.3492 H       
  37 H37            9.9912    11.9148    -1.3019 H       
  38 H38            7.8559    13.0301    -0.2674 H       
  39 H39            9.6125     8.8557    -2.6990 H       
  40 H40           10.8038     9.2834    -1.4476 H       
  41 H41            9.5829     8.0296    -1.1226 H       
  42 H42            1.0119     9.3210    -0.0131 H       
  43 H43            1.1092     7.7697    -0.8803 H       
  44 H44            1.1091     7.7959     0.8995 H       
@<TRIPOS>BOND
   1    1    2 ar
   2    1    6 ar
   3    1   29 1
   4    2    3 ar
   5    2   30 1
   6    3    4 ar
   7    3   31 1
   8    4    5 ar
   9    4   32 1
  10    5    7 1
  11    5    6 ar
  12    6    9 1
  13    7    8 am
  14    7   17 2
  15    8    9 am
  16    8   10 1
  17    9   16 2
  18   10   11 ar
  19   10   15 ar
  20   11   12 ar
  21   11   33 1
  22   12   13 ar
  23   12   27 1
  24   13   14 ar
  25   13   18 1
  26   14   15 ar
  27   14   34 1
  28   15   35 1
  29   18   19 am
  30   18   36 1
  31   19   20 1
  32   19   21 2
  33   20   22 2
  34   20   25 1
  35   22   23 1
  36   22   26 1
  37   23   24 2
  38   23   37 1
  39   24   25 1
  40   24   38 1
  41   26   39 1
  42   26   40 1
  43   26   41 1
  44   27   28 1
  45   28   42 1
  46   28   43 1
  47   28   44 1

#	End of record

