#	Name: ASD01230820
#	Creating user name:	WinNT
#	Creation time:	15. 06. 2019 19:15

#	Modifying user name:	WinNT
#	Modification time:	15. 06. 2019 19:15

#	Program:	/corina/corina34_cracker 3.40 0067  02.08.2006

@<TRIPOS>MOLECULE
ASD01230820
  46   48    0    0    0
SMALL
NO_CHARGES


@<TRIPOS>ATOM
   1 C1            -1.3810     3.5544    -1.1674 C.2     
   2 C2            -1.8580     2.3663    -1.6832 C.2     
   3 C3            -3.2383     2.2069    -1.8543 C.2     
   4 C4            -4.0910     3.1967    -1.5331 C.2     
   5 N5            -3.6721     4.4029    -1.0335 N.pl3   
   6 C6            -2.3422     4.6181    -0.8039 C.2     
   7 C7            -4.7171     5.3991    -0.7826 C.3     
   8 C8            -4.3843     6.2246     0.4636 C.3     
   9 S9            -2.7570     6.9905     0.1805 S.o2    
  10 N10           -1.8263     5.7027    -0.2805 N.am    
  11 C11            0.0702     3.7585    -0.9751 C.ar    
  12 O12           -2.7909     7.8405    -0.9577 O.2     
  13 O13           -2.1821     7.4211     1.4066 O.2     
  14 C14            0.9231     3.7955    -2.0817 C.ar    
  15 C15            2.2642     3.9837    -1.9044 C.ar    
  16 C16            2.7837     4.1398    -0.6156 C.ar    
  17 C17            1.9300     4.1032     0.4912 C.ar    
  18 C18            0.5884     3.9202     0.3128 C.ar    
  19 C19            4.2327     4.3426    -0.4236 C.2     
  20 O20            5.0289     3.6582    -1.0368 O.2     
  21 N21            4.6736     5.2865     0.4314 N.am    
  22 C22            6.1101     5.4437     0.6719 C.3     
  23 C23            3.7162     6.1554     1.1205 C.3     
  24 C24            6.6883     6.4452    -0.3299 C.3     
  25 C25            3.4883     5.6371     2.5418 C.3     
  26 H26           -1.1770     1.5720    -1.9510 H       
  27 H27           -3.6232     1.2783    -2.2492 H       
  28 H28           -5.1493     3.0346    -1.6750 H       
  29 H29           -4.7950     6.0631    -1.6435 H       
  30 H30           -5.6699     4.8911    -0.6336 H       
  31 H31           -5.1385     6.9979     0.6093 H       
  32 H32           -4.3423     5.5759     1.3386 H       
  33 H33            0.5217     3.6749    -3.0770 H       
  34 H34            2.9233     4.0115    -2.7594 H       
  35 H35            2.3310     4.2237     1.4867 H       
  36 H36           -0.0712     3.8923     1.1676 H       
  37 H37            6.2709     5.8100     1.6858 H       
  38 H38            6.6063     4.4808     0.5505 H       
  39 H39            4.1117     7.1702     1.1628 H       
  40 H40            2.7707     6.1563     0.5781 H       
  41 H41            6.5276     6.0789    -1.3438 H       
  42 H42            6.1921     7.4081    -0.2085 H       
  43 H43            7.7572     6.5622    -0.1510 H       
  44 H44            3.4649     4.5474     2.5318 H       
  45 H45            4.2985     5.9772     3.1869 H       
  46 H46            2.5392     6.0174     2.9194 H       
@<TRIPOS>BOND
   1    1    2 2
   2    1   11 1
   3    1    6 1
   4    2    3 1
   5    2   26 1
   6    3    4 2
   7    3   27 1
   8    4    5 1
   9    4   28 1
  10    5    6 1
  11    5    7 1
  12    6   10 2
  13    7    8 1
  14    7   29 1
  15    7   30 1
  16    8    9 1
  17    8   31 1
  18    8   32 1
  19    9   10 am
  20    9   12 2
  21    9   13 2
  22   11   14 ar
  23   11   18 ar
  24   14   15 ar
  25   14   33 1
  26   15   16 ar
  27   15   34 1
  28   16   17 ar
  29   16   19 1
  30   17   18 ar
  31   17   35 1
  32   18   36 1
  33   19   20 2
  34   19   21 am
  35   21   22 1
  36   21   23 1
  37   22   24 1
  38   22   37 1
  39   22   38 1
  40   23   25 1
  41   23   39 1
  42   23   40 1
  43   24   41 1
  44   24   42 1
  45   24   43 1
  46   25   44 1
  47   25   45 1
  48   25   46 1

#	End of record

