#	Name: ASD01810806
#	Creating user name:	WinNT
#	Creation time:	15. 06. 2019 19:25

#	Modifying user name:	WinNT
#	Modification time:	15. 06. 2019 19:25

#	Program:	/corina/corina34_cracker 3.40 0067  02.08.2006

@<TRIPOS>MOLECULE
ASD01810806
  68   71    0    0    0
SMALL
NO_CHARGES


@<TRIPOS>ATOM
   1 C1            -8.0471     2.1793     2.3596 C.1     
   2 C2            -6.8784     2.9775     2.1410 C.ar    
   3 C3            -5.6293     2.5243     2.5700 C.ar    
   4 C4            -4.5077     3.2983     2.3562 C.ar    
   5 C5            -4.6184     4.5213     1.7187 C.ar    
   6 C6            -5.8531     4.9767     1.2915 C.ar    
   7 C7            -6.9820     4.2098     1.4927 C.ar    
   8 N8            -8.9742     1.5461     2.5330 N.1     
   9 N9            -1.9367     7.7889     1.4912 N.am    
  10 C10           -2.4396     7.2835     0.2066 C.3     
  11 C11           -3.7012     6.4532     0.4632 C.3     
  12 C12           -3.3886     5.3615     1.4892 C.3     
  13 C13           -2.9586     6.0071     2.8085 C.3     
  14 C14           -1.6886     6.8323     2.5784 C.3     
  15 F15           -2.3542     4.5519     1.0078 F       
  16 C16           -1.7022     9.1044     1.6672 C.2     
  17 C17           -1.2855     9.6103     2.9926 C.ar    
  18 C18           -2.0168    10.6236     3.6167 C.ar    
  19 C19           -1.6289    11.0968     4.8541 C.ar    
  20 C20           -0.5167    10.5725     5.4832 C.ar    
  21 C21            0.2227     9.5592     4.8707 C.ar    
  22 C22           -0.1660     9.0733     3.6246 C.ar    
  23 O23           -1.8332     9.8749     0.7363 O.2     
  24 C24           -3.2314    11.2019     2.9375 C.3     
  25 N25            2.9348     8.6620     6.9931 N.2     
  26 N26            1.8896     9.3577     6.7179 N.2     
  27 C27            1.4142     8.9993     5.5460 C.2     
  28 N28            2.2306     8.0098     5.0691 N.pl3   
  29 C29            3.1853     7.8261     6.0213 C.2     
  30 C30            4.3227     6.8390     5.9649 C.3     
  31 O31            4.2566     6.1056     4.7403 O.3     
  32 C32            5.2961     5.1373     4.5859 C.3     
  33 C33            4.7846     3.9706     3.7385 C.3     
  34 C34            6.4966     5.7839     3.8919 C.3     
  35 C35           -0.1002    11.0960     6.8335 C.3     
  36 C36            0.9639    12.1807     6.6540 C.3     
  37 H37           -5.5416     1.5701     3.0683 H       
  38 H38           -3.5409     2.9490     2.6875 H       
  39 H39           -5.9325     5.9324     0.7948 H       
  40 H40           -7.9445     4.5642     1.1544 H       
  41 H41           -2.6806     8.1219    -0.4469 H       
  42 H42           -1.6799     6.6584    -0.2628 H       
  43 H43           -4.4899     7.0994     0.8484 H       
  44 H44           -4.0298     5.9932    -0.4688 H       
  45 H45           -3.7543     6.6575     3.1716 H       
  46 H46           -2.7587     5.2296     3.5458 H       
  47 H47           -0.8677     6.1704     2.3025 H       
  48 H48           -1.4342     7.3731     3.4900 H       
  49 H49           -2.1975    11.8807     5.3323 H       
  50 H50            0.4006     8.2868     3.1483 H       
  51 H51           -4.1001    10.5806     3.1558 H       
  52 H52           -3.4063    12.2131     3.3049 H       
  53 H53           -3.0664    11.2302     1.8604 H       
  54 H54            2.1461     7.5370     4.2264 H       
  55 H55            5.2709     7.3739     6.0174 H       
  56 H56            4.2474     6.1496     6.8058 H       
  57 H57            5.5982     4.7691     5.5664 H       
  58 H58            4.4825     4.3388     2.7580 H       
  59 H59            5.5775     3.2320     3.6207 H       
  60 H60            3.9293     3.5100     4.2329 H       
  61 H61            6.8610     6.6150     4.4957 H       
  62 H62            7.2895     5.0453     3.7742 H       
  63 H63            6.1945     6.1521     2.9115 H       
  64 H64           -0.9667    11.5178     7.3428 H       
  65 H65            0.3096    10.2801     7.4289 H       
  66 H66            0.5541    12.9966     6.0587 H       
  67 H67            1.2652    12.5593     7.6307 H       
  68 H68            1.8304    11.7588     6.1448 H       
@<TRIPOS>BOND
   1    1    2 1
   2    1    8 3
   3    2    3 ar
   4    2    7 ar
   5    3    4 ar
   6    3   37 1
   7    4    5 ar
   8    4   38 1
   9    5    6 ar
  10    5   12 1
  11    6    7 ar
  12    6   39 1
  13    7   40 1
  14    9   10 1
  15    9   14 1
  16    9   16 am
  17   10   11 1
  18   10   41 1
  19   10   42 1
  20   11   12 1
  21   11   43 1
  22   11   44 1
  23   12   13 1
  24   12   15 1
  25   13   14 1
  26   13   45 1
  27   13   46 1
  28   14   47 1
  29   14   48 1
  30   16   17 1
  31   16   23 2
  32   17   18 ar
  33   17   22 ar
  34   18   19 ar
  35   18   24 1
  36   19   20 ar
  37   19   49 1
  38   20   21 ar
  39   20   35 1
  40   21   22 ar
  41   21   27 1
  42   22   50 1
  43   24   51 1
  44   24   52 1
  45   24   53 1
  46   25   26 1
  47   25   29 2
  48   26   27 2
  49   27   28 1
  50   28   29 1
  51   28   54 1
  52   29   30 1
  53   30   31 1
  54   30   55 1
  55   30   56 1
  56   31   32 1
  57   32   33 1
  58   32   34 1
  59   32   57 1
  60   33   58 1
  61   33   59 1
  62   33   60 1
  63   34   61 1
  64   34   62 1
  65   34   63 1
  66   35   36 1
  67   35   64 1
  68   35   65 1
  69   36   66 1
  70   36   67 1
  71   36   68 1

#	End of record

