#	Name: ASD01208862
#	Creating user name:	WinNT
#	Creation time:	15. 06. 2019 19:10

#	Modifying user name:	WinNT
#	Modification time:	15. 06. 2019 19:10

#	Program:	/corina/corina34_cracker 3.40 0067  02.08.2006

@<TRIPOS>MOLECULE
ASD01208862
  38   40    0    0    0
SMALL
NO_CHARGES


@<TRIPOS>ATOM
   1 C1            -0.6018    -0.5315     3.0756 C.2     
   2 C2            -0.2493    -0.9598     1.7061 C.ar    
   3 C3            -1.1006    -0.6657     0.6397 C.ar    
   4 C4            -0.7660    -1.0686    -0.6423 C.ar    
   5 C5             0.4135    -1.7636    -0.8677 C.ar    
   6 C6             1.2628    -2.0582     0.1892 C.ar    
   7 C7             0.9386    -1.6543     1.4742 C.ar    
   8 O8             0.1403    -0.7883     4.0023 O.2     
   9 O9            -1.7436     0.1486     3.2956 O.3     
  10 O10            2.4168    -2.7391    -0.0372 O.3     
  11 C11            2.3874    -4.0935     0.0599 C.ar    
  12 C12            3.5645    -4.8221    -0.0561 C.ar    
  13 C13            3.5388    -6.1964     0.0419 C.ar    
  14 C14            2.3276    -6.8566     0.2579 C.ar    
  15 C15            1.1465    -6.1208     0.3740 C.ar    
  16 C16            1.1812    -4.7463     0.2806 C.ar    
  17 O17            1.2038    -9.0937     0.5693 O.3     
  18 C18            2.2956    -8.3302     0.3631 C.2     
  19 N19            3.3250    -9.1399     0.2730 N.2     
  20 N20            2.9230   -10.3541     0.4127 N.2     
  21 C21            1.6326   -10.3678     0.5958 C.2     
  22 C22            0.7759   -11.5908     0.7998 C.3     
  23 O23           -1.5945    -0.7831    -1.6811 O.3     
  24 C24           -2.0257     0.5374     4.6659 C.3     
  25 H25           -2.0191    -0.1251     0.8142 H       
  26 H26            0.6711    -2.0766    -1.8687 H       
  27 H27            1.6023    -1.8800     2.2957 H       
  28 H28            4.5009    -4.3107    -0.2235 H       
  29 H29            4.4543    -6.7622    -0.0487 H       
  30 H30            0.2077    -6.6279     0.5407 H       
  31 H31            0.2688    -4.1762     0.3746 H       
  32 H32            0.4264   -11.9548    -0.1664 H       
  33 H33            1.3625   -12.3676     1.2902 H       
  34 H34           -0.0808   -11.3344     1.4230 H       
  35 H35           -1.4093     0.0631    -2.1108 H       
  36 H36           -2.0907    -0.3537     5.2903 H       
  37 H37           -1.2262     1.1808     5.0330 H       
  38 H38           -2.9722     1.0768     4.7030 H       
@<TRIPOS>BOND
   1    1    2 1
   2    1    8 2
   3    1    9 1
   4    2    3 ar
   5    2    7 ar
   6    3    4 ar
   7    3   25 1
   8    4    5 ar
   9    4   23 1
  10    5    6 ar
  11    5   26 1
  12    6    7 ar
  13    6   10 1
  14    7   27 1
  15    9   24 1
  16   10   11 1
  17   11   12 ar
  18   11   16 ar
  19   12   13 ar
  20   12   28 1
  21   13   14 ar
  22   13   29 1
  23   14   15 ar
  24   14   18 1
  25   15   16 ar
  26   15   30 1
  27   16   31 1
  28   17   18 1
  29   17   21 1
  30   18   19 2
  31   19   20 1
  32   20   21 2
  33   21   22 1
  34   22   32 1
  35   22   33 1
  36   22   34 1
  37   23   35 1
  38   24   36 1
  39   24   37 1
  40   24   38 1

#	End of record

