#	Name: ASD03930115
#	Creating user name:	WinNT
#	Creation time:	15. 06. 2019 20:47

#	Modifying user name:	WinNT
#	Modification time:	15. 06. 2019 20:47

#	Program:	/corina/corina34_cracker 3.40 0067  02.08.2006

@<TRIPOS>MOLECULE
ASD03930115
  56   58    0    0    0
SMALL
NO_CHARGES


@<TRIPOS>ATOM
   1 C1            -0.7864     2.2063    -1.0206 C.ar    
   2 C2            -1.0222     0.8571    -0.8325 C.ar    
   3 C3            -0.0678     0.0696    -0.2191 C.ar    
   4 C4             1.1257     0.6270     0.2088 C.ar    
   5 C5             1.3614     1.9758     0.0208 C.ar    
   6 C6             0.4031     2.7639    -0.5947 C.ar    
   7 C7             2.3143    -0.0092     0.8970 C.3     
   8 C8             3.4717     0.9957     0.7155 C.3     
   9 C9             2.7246     2.3385     0.5698 C.3     
  10 N10            4.3403     1.0084     1.8951 N.am    
  11 C11           -2.3196     0.2464    -1.2960 C.3     
  12 N12           -2.1732    -0.2220    -2.6764 N.pl3   
  13 N13           -1.7532     0.5488    -3.7681 N.2     
  14 C14           -1.7482    -0.2153    -4.8302 C.2     
  15 C15           -2.1643    -1.4953    -4.4495 C.2     
  16 C16           -2.4137    -1.4737    -3.1197 C.2     
  17 C17           -1.3615     0.2103    -6.2231 C.3     
  18 F18           -0.7796     1.4818    -6.1775 F       
  19 F19           -0.4439    -0.7037    -6.7522 F       
  20 F20           -2.5018     0.2481    -7.0327 F       
  21 S21            5.9672     1.2649     1.7227 S.o2    
  22 O22            6.0545     2.4669     0.9698 O.2     
  23 O23            6.4758     1.1917     3.0476 O.2     
  24 C24            6.5462    -0.1455     0.7398 C.3     
  25 C25           -2.3040    -2.6891    -5.3586 C.3     
  26 C26           -3.1397    -3.7651    -4.6625 C.3     
  27 C27            8.0521    -0.0173     0.5017 C.3     
  28 C28            6.2579    -1.4452     1.4937 C.3     
  29 O29           -2.9510    -2.2926    -6.5695 O.3     
  30 C30           -0.9173    -3.2495    -5.6811 C.3     
  31 H31           -1.5298     2.8227    -1.5041 H       
  32 H32           -0.2529    -0.9843    -0.0723 H       
  33 H33            0.5868     3.8179    -0.7423 H       
  34 H34            2.1039    -0.1563     1.9563 H       
  35 H35            2.5611    -0.9597     0.4241 H       
  36 H36            4.0428     0.7704    -0.1852 H       
  37 H37            3.2515     2.9908    -0.1266 H       
  38 H38            2.6245     2.8229     1.5411 H       
  39 H39            3.9624     0.8664     2.7772 H       
  40 H40           -2.5757    -0.5949    -0.6520 H       
  41 H41           -3.1109     0.9946    -1.2482 H       
  42 H42           -2.7518    -2.3070    -2.5217 H       
  43 H43            6.0266    -0.1583    -0.2184 H       
  44 H44           -4.1496    -3.3900    -4.4964 H       
  45 H45           -3.1814    -4.6553    -5.2901 H       
  46 H46           -2.6836    -4.0167    -3.7050 H       
  47 H47            8.5716    -0.0044     1.4598 H       
  48 H48            8.4000    -0.8647    -0.0890 H       
  49 H49            8.2575     0.9087    -0.0355 H       
  50 H50            6.5271    -2.2958     0.8676 H       
  51 H51            6.8442    -1.4702     2.4122 H       
  52 H52            5.1969    -1.4956     1.7385 H       
  53 H53           -3.8368    -1.9269    -6.4406 H       
  54 H54           -0.4603    -3.6350    -4.7697 H       
  55 H55           -1.0114    -4.0552    -6.4092 H       
  56 H56           -0.2925    -2.4577    -6.0941 H       
@<TRIPOS>BOND
   1    1    2 ar
   2    1    6 ar
   3    1   31 1
   4    2    3 ar
   5    2   11 1
   6    3    4 ar
   7    3   32 1
   8    4    5 ar
   9    4    7 1
  10    5    6 ar
  11    5    9 1
  12    6   33 1
  13    7    8 1
  14    7   34 1
  15    7   35 1
  16    8    9 1
  17    8   10 1
  18    8   36 1
  19    9   37 1
  20    9   38 1
  21   10   21 am
  22   10   39 1
  23   11   12 1
  24   11   40 1
  25   11   41 1
  26   12   13 1
  27   12   16 1
  28   13   14 2
  29   14   15 1
  30   14   17 1
  31   15   16 2
  32   15   25 1
  33   16   42 1
  34   17   18 1
  35   17   19 1
  36   17   20 1
  37   21   22 2
  38   21   23 2
  39   21   24 1
  40   24   27 1
  41   24   28 1
  42   24   43 1
  43   25   26 1
  44   25   29 1
  45   25   30 1
  46   26   44 1
  47   26   45 1
  48   26   46 1
  49   27   47 1
  50   27   48 1
  51   27   49 1
  52   28   50 1
  53   28   51 1
  54   28   52 1
  55   29   53 1
  56   30   54 1
  57   30   55 1
  58   30   56 1

#	End of record

