#	Name: ASD00310021
#	Creating user name:	WinNT
#	Creation time:	15. 06. 2019 18:33

#	Modifying user name:	WinNT
#	Modification time:	15. 06. 2019 18:33

#	Program:	/corina/corina34_cracker 3.40 0067  02.08.2006

@<TRIPOS>MOLECULE
ASD00310021
  37   38    0    0    0
SMALL
NO_CHARGES


@<TRIPOS>ATOM
   1 N1             0.3429     1.7457     0.0086 N.am    
   2 C2             0.0259     0.3097    -0.0097 C.3     
   3 C3             1.3697     0.0595     0.6888 C.3     
   4 C4             1.7663     1.3759     0.0063 C.3     
   5 C5            -0.3612     2.8948     0.0174 C.2     
   6 O6            -1.5759     2.8632     0.0098 O.2     
   7 O7             0.2813     4.0779     0.0347 O.3     
   8 O8             1.3116     0.1330     2.1147 O.3     
   9 C9             2.2935    -0.5036     2.8059 C.ar    
  10 C10            2.3548    -0.3920     4.1873 C.ar    
  11 C11            3.3537    -1.0398     4.8880 C.ar    
  12 C12            4.2927    -1.7991     4.2130 C.ar    
  13 C13            4.2333    -1.9117     2.8354 C.ar    
  14 C14            3.2324    -1.2705     2.1315 C.ar    
  15 Br15           5.6596    -2.6838     5.1746 Br      
  16 C16           -0.5411     5.2745     0.0434 C.3     
  17 C17           -1.4318     5.2722     1.2874 C.3     
  18 C18            0.3589     6.5117     0.0629 C.3     
  19 C19           -1.4168     5.3006    -1.2109 C.3     
  20 H20           -0.8369     0.0478     0.6027 H       
  21 H21           -0.0262    -0.1106    -1.0140 H       
  22 H22            1.9083    -0.8142     0.3217 H       
  23 H23            2.1778     1.2396    -0.9938 H       
  24 H24            2.3833     2.0207     0.6322 H       
  25 H25            1.6224     0.2012     4.7146 H       
  26 H26            3.4018    -0.9532     5.9634 H       
  27 H27            4.9673    -2.5049     2.3103 H       
  28 H28            3.1838    -1.3623     1.0565 H       
  29 H29           -0.8079     5.2536     2.1809 H       
  30 H30           -2.0491     6.1706     1.2939 H       
  31 H31           -2.0730     4.3909     1.2735 H       
  32 H32            0.9935     6.5133    -0.8234 H       
  33 H33           -0.2584     7.4100     0.0694 H       
  34 H34            0.9828     6.4931     0.9564 H       
  35 H35           -2.0580     4.4193    -1.2248 H       
  36 H36           -2.0341     6.1990    -1.2044 H       
  37 H37           -0.7822     5.3023    -2.0971 H       
@<TRIPOS>BOND
   1    1    2 1
   2    1    4 1
   3    1    5 am
   4    2    3 1
   5    2   20 1
   6    2   21 1
   7    3    4 1
   8    3    8 1
   9    3   22 1
  10    4   23 1
  11    4   24 1
  12    5    6 2
  13    5    7 1
  14    7   16 1
  15    8    9 1
  16    9   10 ar
  17    9   14 ar
  18   10   11 ar
  19   10   25 1
  20   11   12 ar
  21   11   26 1
  22   12   13 ar
  23   12   15 1
  24   13   14 ar
  25   13   27 1
  26   14   28 1
  27   16   17 1
  28   16   19 1
  29   16   18 1
  30   17   29 1
  31   17   30 1
  32   17   31 1
  33   18   32 1
  34   18   33 1
  35   18   34 1
  36   19   35 1
  37   19   36 1
  38   19   37 1

#	End of record

