#	Name: ASD04880052
#	Creating user name:	WinNT
#	Creation time:	15. 06. 2019 20:52

#	Modifying user name:	WinNT
#	Modification time:	15. 06. 2019 20:52

#	Program:	/corina/corina34_cracker 3.40 0067  02.08.2006

@<TRIPOS>MOLECULE
ASD04880052
  46   49    0    0    0
SMALL
NO_CHARGES


@<TRIPOS>ATOM
   1 C1            -0.0144     1.2119     0.0087 C.2     
   2 O2             0.0577    -0.0018    -0.0153 O.2     
   3 N3             4.6282     4.3401    -0.1091 N.ar    
   4 C4             5.8179     3.7953    -0.0252 C.ar    
   5 C5             5.9871     2.4178     0.0965 C.ar    
   6 C6             4.8953     1.5980     0.1315 C.ar    
   7 C7             3.6184     2.1870     0.0416 C.ar    
   8 C8             2.4548     1.4067     0.0709 C.ar    
   9 C9             1.2179     2.0257    -0.0208 C.ar    
  10 C10            1.1296     3.4238    -0.1421 C.ar    
  11 C11            2.2472     4.1933    -0.1719 C.ar    
  12 C12            3.5183     3.5961    -0.0811 C.ar    
  13 N13           -1.2190     1.8146     0.0566 N.am    
  14 N14           -1.4351     3.1835     0.2011 N.2     
  15 C15           -2.6787     3.5209     0.2198 C.2     
  16 C16           -3.5392     2.2862     0.0745 C.3     
  17 C17           -2.5205     1.1351    -0.0416 C.3     
  18 C18           -3.1843     4.8983     0.3619 C.ar    
  19 C19           -2.2886     5.9637     0.4897 C.ar    
  20 C20           -2.7681     7.2529     0.6226 C.ar    
  21 C21           -4.1416     7.4885     0.6295 C.ar    
  22 C22           -5.0307     6.4316     0.5027 C.ar    
  23 C23           -4.5596     5.1427     0.3633 C.ar    
  24 O24           -4.6111     8.7573     0.7612 O.3     
  25 C25           -6.0300     8.9274     0.7603 C.3     
  26 O26           -1.8994     8.2919     0.7472 O.3     
  27 C27           -0.5055     7.9774     0.7325 C.3     
  28 H28            6.6902     4.4315    -0.0516 H       
  29 H29            6.9803     1.9987     0.1628 H       
  30 H30            5.0075     0.5279     0.2251 H       
  31 H31            2.5211     0.3326     0.1629 H       
  32 H32            0.1588     3.8919    -0.2128 H       
  33 H33            2.1610     5.2657    -0.2659 H       
  34 H34           -4.1713     2.1552     0.9528 H       
  35 H35           -4.1461     2.3473    -0.8289 H       
  36 H36           -2.6179     0.6296    -1.0024 H       
  37 H37           -2.6474     0.4289     0.7791 H       
  38 H38           -1.2244     5.7798     0.4849 H       
  39 H39           -6.0943     6.6187     0.5089 H       
  40 H40           -5.2541     4.3220     0.2599 H       
  41 H41           -6.4394     8.5598    -0.1806 H       
  42 H42           -6.4636     8.3671     1.5887 H       
  43 H43           -6.2693     9.9849     0.8722 H       
  44 H44           -0.2764     7.3035     1.5580 H       
  45 H45           -0.2518     7.4951    -0.2115 H       
  46 H46            0.0748     8.8938     0.8398 H       
@<TRIPOS>BOND
   1    1    2 2
   2    1    9 1
   3    1   13 am
   4    3    4 ar
   5    3   12 ar
   6    4    5 ar
   7    4   28 1
   8    5    6 ar
   9    5   29 1
  10    6    7 ar
  11    6   30 1
  12    7    8 ar
  13    7   12 ar
  14    8    9 ar
  15    8   31 1
  16    9   10 ar
  17   10   11 ar
  18   10   32 1
  19   11   12 ar
  20   11   33 1
  21   13   14 1
  22   13   17 1
  23   14   15 2
  24   15   16 1
  25   15   18 1
  26   16   17 1
  27   16   34 1
  28   16   35 1
  29   17   36 1
  30   17   37 1
  31   18   19 ar
  32   18   23 ar
  33   19   20 ar
  34   19   38 1
  35   20   21 ar
  36   20   26 1
  37   21   22 ar
  38   21   24 1
  39   22   23 ar
  40   22   39 1
  41   23   40 1
  42   24   25 1
  43   25   41 1
  44   25   42 1
  45   25   43 1
  46   26   27 1
  47   27   44 1
  48   27   45 1
  49   27   46 1

#	End of record

