#	Name: ASD03430118
#	Creating user name:	WinNT
#	Creation time:	15. 06. 2019 20:40

#	Modifying user name:	WinNT
#	Modification time:	15. 06. 2019 20:40

#	Program:	/corina/corina34_cracker 3.40 0067  02.08.2006

@<TRIPOS>MOLECULE
ASD03430118
  51   56    0    0    0
SMALL
NO_CHARGES


@<TRIPOS>ATOM
   1 C1             0.1909     1.2755    -0.2764 C.ar    
   2 C2             0.1893    -0.1096    -0.2167 C.ar    
   3 C3             1.3786    -0.8022    -0.1313 C.ar    
   4 C4             2.5927    -0.1229    -0.0948 C.ar    
   5 C5             2.5909     1.2667    -0.1602 C.ar    
   6 C6             1.3980     1.9643    -0.2488 C.ar    
   7 O7             3.6402    -0.9888     0.0193 O.3     
   8 C8             1.7064    -2.2700    -0.0731 C.3     
   9 C9             3.2117    -2.3074    -0.3712 C.3     
  10 C10            0.5021    -3.9186     0.9995 C.ar    
  11 C11            1.3848    -2.8751     1.2610 C.ar    
  12 C12            0.9212    -3.0701    -1.0724 C.2     
  13 N13            0.2517    -4.0074    -0.3721 N.am    
  14 O14            0.8943    -2.9051    -2.2737 O.2     
  15 C15            1.7776    -2.5949     2.5574 C.ar    
  16 C16            1.2900    -3.3611     3.6106 C.ar    
  17 C17            0.4149    -4.3990     3.3559 C.ar    
  18 C18            0.0210    -4.6790     2.0630 C.ar    
  19 N19            2.6631    -1.5442     2.8082 N.3     
  20 O20           -0.9922     1.9434    -0.3670 O.3     
  21 C21           -0.9682     3.3397    -0.0504 C.3     
  22 C22            0.2337     3.9727    -0.7645 C.3     
  23 O23            1.4233     3.3246    -0.3034 O.3     
  24 C24           -0.6348    -5.0035    -0.9787 C.3     
  25 C25            3.9300    -2.0438     3.3619 C.3     
  26 C26            4.8903    -0.8689     3.5653 C.3     
  27 O27            4.2739     0.1026     4.4148 O.3     
  28 C28            3.0379     0.6110     3.9056 C.3     
  29 C29            2.0588    -0.5489     3.7057 C.3     
  30 H30           -0.7467    -0.6480    -0.2368 H       
  31 H31            3.5268     1.8055    -0.1414 H       
  32 H32            3.3920    -2.4742    -1.4332 H       
  33 H33            3.7068    -3.0693     0.2308 H       
  34 H34            1.5942    -3.1452     4.6242 H       
  35 H35            0.0364    -4.9948     4.1733 H       
  36 H36           -0.6639    -5.4925     1.8747 H       
  37 H37           -1.8895     3.8104    -0.3934 H       
  38 H38           -0.8666     3.4707     1.0269 H       
  39 H39            0.1358     3.8349    -1.8414 H       
  40 H40            0.2806     5.0367    -0.5324 H       
  41 H41           -1.6489    -4.6066    -1.0258 H       
  42 H42           -0.2875    -5.2336    -1.9859 H       
  43 H43           -0.6277    -5.9114    -0.3756 H       
  44 H44            3.7422    -2.5303     4.3191 H       
  45 H45            4.3726    -2.7599     2.6695 H       
  46 H46            5.8099    -1.2264     4.0287 H       
  47 H47            5.1203    -0.4157     2.6010 H       
  48 H48            2.6177     1.3238     4.6152 H       
  49 H49            3.2140     1.1073     2.9513 H       
  50 H50            1.1355    -0.1738     3.2643 H       
  51 H51            1.8411    -1.0115     4.6684 H       
@<TRIPOS>BOND
   1    1    2 ar
   2    1    6 ar
   3    1   20 1
   4    2    3 ar
   5    2   30 1
   6    3    4 ar
   7    3    8 1
   8    4    5 ar
   9    4    7 1
  10    5    6 ar
  11    5   31 1
  12    6   23 1
  13    7    9 1
  14    8    9 1
  15    8   11 1
  16    8   12 1
  17    9   32 1
  18    9   33 1
  19   10   11 ar
  20   10   13 1
  21   10   18 ar
  22   11   15 ar
  23   12   13 am
  24   12   14 2
  25   13   24 1
  26   15   16 ar
  27   15   19 1
  28   16   17 ar
  29   16   34 1
  30   17   18 ar
  31   17   35 1
  32   18   36 1
  33   19   25 1
  34   19   29 1
  35   20   21 1
  36   21   22 1
  37   21   37 1
  38   21   38 1
  39   22   23 1
  40   22   39 1
  41   22   40 1
  42   24   41 1
  43   24   42 1
  44   24   43 1
  45   25   26 1
  46   25   44 1
  47   25   45 1
  48   26   27 1
  49   26   46 1
  50   26   47 1
  51   27   28 1
  52   28   29 1
  53   28   48 1
  54   28   49 1
  55   29   50 1
  56   29   51 1

#	End of record

