#	Name: ASD01816914
#	Creating user name:	WinNT
#	Creation time:	15. 06. 2019 19:36

#	Modifying user name:	WinNT
#	Modification time:	15. 06. 2019 19:36

#	Program:	/corina/corina34_cracker 3.40 0067  02.08.2006

@<TRIPOS>MOLECULE
ASD01816914
  58   63    0    0    0
SMALL
NO_CHARGES


@<TRIPOS>ATOM
   1 C1            -0.0159     1.3197     0.0093 C.ar    
   2 N2             0.0021    -0.0041     0.0020 N.ar    
   3 C3             1.1158    -0.6999    -0.0123 C.ar    
   4 C4             2.3544    -0.0408    -0.0206 C.ar    
   5 C5             2.3621     1.3769    -0.0130 C.ar    
   6 C6             1.1366     2.0526     0.0022 C.ar    
   7 C7             3.5723    -0.7485    -0.0364 C.ar    
   8 C8             4.7597    -0.0948    -0.0447 C.ar    
   9 C9             4.8218     1.3071    -0.0373 C.ar    
  10 C10            3.6424     2.0744    -0.0220 C.ar    
  11 C11            6.1046     2.0237    -0.0463 C.2     
  12 N12            6.0637     3.3763    -0.0386 N.am    
  13 C13            4.8746     4.0288    -0.0229 C.2     
  14 N14            3.7274     3.4151    -0.0161 N.2     
  15 O15            7.1639     1.4234    -0.0596 O.2     
  16 C16            3.5548    -2.2554    -0.0438 C.3     
  17 C17            3.4108    -2.7491    -1.4603 C.ar    
  18 C18            4.5355    -2.9921    -2.2359 C.ar    
  19 C19            4.3583    -3.4455    -3.5321 C.ar    
  20 C20            3.0685    -3.6406    -4.0094 C.ar    
  21 N21            2.0206    -3.3975    -3.2387 N.ar    
  22 C22            2.1578    -2.9702    -1.9988 C.ar    
  23 C23            7.3129     4.1416    -0.0469 C.3     
  24 C24            7.3587     5.0297    -1.2920 C.3     
  25 C25            7.3835     5.0163     1.2064 C.3     
  26 C26            8.6881     5.8156     1.1977 C.3     
  27 C27            8.7339     6.7036    -0.0474 C.3     
  28 C28            8.6633     5.8289    -1.3006 C.3     
  29 O29            7.3408     4.1869     2.3692 O.3     
  30 N30            2.8756    -4.0976    -5.3166 N.pl3   
  31 C31            1.6784    -4.3321    -5.9141 C.2     
  32 C32            1.9263    -4.7622    -7.1726 C.2     
  33 C33            3.3138    -4.7926    -7.3531 C.2     
  34 N34            3.8824    -4.3897    -6.2460 N.2     
  35 H35           -0.9660     1.8331     0.0165 H       
  36 H36            1.0783    -1.7793    -0.0174 H       
  37 H37            1.1028     3.1320     0.0080 H       
  38 H38            5.6770    -0.6647    -0.0568 H       
  39 H39            4.8803     5.1087    -0.0168 H       
  40 H40            4.4862    -2.6316     0.3792 H       
  41 H41            2.7148    -2.6119     0.5524 H       
  42 H42            5.5264    -2.8310    -1.8377 H       
  43 H43            5.2115    -3.6445    -4.1637 H       
  44 H44            1.2793    -2.7827    -1.3992 H       
  45 H45            8.1595     3.4551    -0.0590 H       
  46 H46            7.3084     4.4065    -2.1848 H       
  47 H47            6.5121     5.7162    -1.2799 H       
  48 H48            6.5369     5.7028     1.2184 H       
  49 H49            8.7384     6.4387     2.0905 H       
  50 H50            9.5347     5.1291     1.1856 H       
  51 H51            7.8873     7.3901    -0.0353 H       
  52 H52            9.6633     7.2730    -0.0535 H       
  53 H53            9.5099     5.1424    -1.3127 H       
  54 H54            8.6959     6.4616    -2.1876 H       
  55 H55            7.3816     4.6756     3.2026 H       
  56 H56            0.7050    -4.1999    -5.4654 H       
  57 H57            1.1840    -5.0341    -7.9085 H       
  58 H58            3.8274    -5.0928    -8.2544 H       
@<TRIPOS>BOND
   1    1    2 ar
   2    1    6 ar
   3    1   35 1
   4    2    3 ar
   5    3    4 ar
   6    3   36 1
   7    4    5 ar
   8    4    7 ar
   9    5    6 ar
  10    5   10 ar
  11    6   37 1
  12    7    8 ar
  13    7   16 1
  14    8    9 ar
  15    8   38 1
  16    9   10 ar
  17    9   11 1
  18   10   14 1
  19   11   12 am
  20   11   15 2
  21   12   13 1
  22   12   23 1
  23   13   14 2
  24   13   39 1
  25   16   17 1
  26   16   40 1
  27   16   41 1
  28   17   18 ar
  29   17   22 ar
  30   18   19 ar
  31   18   42 1
  32   19   20 ar
  33   19   43 1
  34   20   21 ar
  35   20   30 1
  36   21   22 ar
  37   22   44 1
  38   23   24 1
  39   23   25 1
  40   23   45 1
  41   24   28 1
  42   24   46 1
  43   24   47 1
  44   25   26 1
  45   25   29 1
  46   25   48 1
  47   26   27 1
  48   26   49 1
  49   26   50 1
  50   27   28 1
  51   27   51 1
  52   27   52 1
  53   28   53 1
  54   28   54 1
  55   29   55 1
  56   30   31 1
  57   30   34 1
  58   31   32 2
  59   31   56 1
  60   32   33 1
  61   32   57 1
  62   33   34 2
  63   33   58 1

#	End of record

