#	Name: ASD01411196
#	Creating user name:	WinNT
#	Creation time:	15. 06. 2019 19:19

#	Modifying user name:	WinNT
#	Modification time:	15. 06. 2019 19:19

#	Program:	/corina/corina34_cracker 3.40 0067  02.08.2006

@<TRIPOS>MOLECULE
ASD01411196
  67   69    0    0    0
SMALL
NO_CHARGES


@<TRIPOS>ATOM
   1 C1            -1.3414     1.1158    -0.0705 C.ar    
   2 C2            -1.1135    -0.2375    -0.0582 C.ar    
   3 C3             0.1827    -0.7483    -0.0373 C.ar    
   4 C4             1.2578     0.1298    -0.0222 C.ar    
   5 C5             1.0345     1.4928    -0.0322 C.ar    
   6 C6            -0.2606     1.9929    -0.0576 C.ar    
   7 P7            -2.4845    -1.4320    -0.0630 P.3     
   8 N8            -1.8391    -2.9008     0.3113 N.2     
   9 C9            -0.5519    -3.0643     0.2873 C.2     
  10 N10            0.3807    -2.1277    -0.0384 N.pl3   
  11 C11           -0.0478    -4.4020     0.6505 C.2     
  12 C12           -0.8200    -5.4659     1.0048 C.2     
  13 C13            0.1264    -6.6102     1.2868 C.3     
  14 N14            1.4771    -6.0835     1.0573 N.am    
  15 C15            1.3624    -4.7974     0.6808 C.2     
  16 C16            2.7294    -6.8292     1.2060 C.3     
  17 C17            3.0012    -7.6290    -0.0697 C.3     
  18 C18            4.3090    -8.4078     0.0856 C.3     
  19 C19            4.1943    -9.3655     1.2733 C.3     
  20 C20            4.5809    -9.2075    -1.1901 C.3     
  21 C21            5.4596    -7.4291     0.3290 C.3     
  22 O22           -3.4922    -1.0492     0.9511 O.2     
  23 O23           -3.1628    -1.4849    -1.5222 O.3     
  24 O24           -2.1615    -5.4932     1.0881 O.3     
  25 O25            2.2960    -4.0662     0.4084 O.2     
  26 C26           -3.7592    -0.3454    -2.1450 C.3     
  27 C27           -4.3058    -0.7422    -3.5178 C.3     
  28 C28           -0.0204    -7.0700     2.7387 C.3     
  29 C29           -1.5043    -7.1343     3.1057 C.3     
  30 C30            0.6055    -8.4567     2.9002 C.3     
  31 C31            0.6908    -6.0787     3.6619 C.3     
  32 N32           -0.4787     3.3751    -0.0706 N.pl3   
  33 H33           -2.3515     1.4974    -0.0946 H       
  34 H34            2.2677    -0.2524    -0.0023 H       
  35 H35            1.8726     2.1739    -0.0204 H       
  36 H36            1.2598    -2.4484    -0.2938 H       
  37 H37           -0.0738    -7.4390     0.6078 H       
  38 H38            3.5491    -6.1320     1.3794 H       
  39 H39            2.6476    -7.5115     2.0521 H       
  40 H40            2.1815    -8.3262    -0.2430 H       
  41 H41            3.0830    -6.9467    -0.9158 H       
  42 H42            3.3746   -10.0627     1.0999 H       
  43 H43            5.1260    -9.9203     1.3839 H       
  44 H44            4.0006    -8.7957     2.1821 H       
  45 H45            4.6626    -8.5252    -2.0362 H       
  46 H46            5.5126    -9.7623    -1.0794 H       
  47 H47            3.7612    -9.9047    -1.3634 H       
  48 H48            5.2659    -6.8593     1.2378 H       
  49 H49            6.3913    -7.9839     0.4396 H       
  50 H50            5.5413    -6.7468    -0.5171 H       
  51 H51           -2.6313    -4.6753     0.8750 H       
  52 H52           -4.5741     0.0241    -1.5224 H       
  53 H53           -3.0098     0.4371    -2.2646 H       
  54 H54           -3.4909    -1.1116    -4.1404 H       
  55 H55           -5.0552    -1.5247    -3.3982 H       
  56 H56           -4.7607     0.1270    -3.9929 H       
  57 H57           -2.0110    -7.8405     2.4480 H       
  58 H58           -1.6089    -7.4619     4.1401 H       
  59 H59           -1.9502    -6.1464     2.9906 H       
  60 H60            1.6539    -8.4189     2.6042 H       
  61 H61            0.5332    -8.7688     3.9421 H       
  62 H62            0.0754    -9.1703     2.2695 H       
  63 H63            0.2449    -5.0908     3.5468 H       
  64 H64            0.5863    -6.4063     4.6963 H       
  65 H65            1.7480    -6.0329     3.4004 H       
  66 H66           -1.3839     3.7232    -0.0887 H       
  67 H67            0.2754     3.9852    -0.0616 H       
@<TRIPOS>BOND
   1    1    2 ar
   2    1    6 ar
   3    1   33 1
   4    2    3 ar
   5    2    7 1
   6    3    4 ar
   7    3   10 1
   8    4    5 ar
   9    4   34 1
  10    5    6 ar
  11    5   35 1
  12    6   32 1
  13    7    8 1
  14    7   22 2
  15    7   23 1
  16    8    9 2
  17    9   10 1
  18    9   11 1
  19   10   36 1
  20   11   12 2
  21   11   15 1
  22   12   13 1
  23   12   24 1
  24   13   14 1
  25   13   28 1
  26   13   37 1
  27   14   15 am
  28   14   16 1
  29   15   25 2
  30   16   17 1
  31   16   38 1
  32   16   39 1
  33   17   18 1
  34   17   40 1
  35   17   41 1
  36   18   19 1
  37   18   20 1
  38   18   21 1
  39   19   42 1
  40   19   43 1
  41   19   44 1
  42   20   45 1
  43   20   46 1
  44   20   47 1
  45   21   48 1
  46   21   49 1
  47   21   50 1
  48   23   26 1
  49   24   51 1
  50   26   27 1
  51   26   52 1
  52   26   53 1
  53   27   54 1
  54   27   55 1
  55   27   56 1
  56   28   29 1
  57   28   30 1
  58   28   31 1
  59   29   57 1
  60   29   58 1
  61   29   59 1
  62   30   60 1
  63   30   61 1
  64   30   62 1
  65   31   63 1
  66   31   64 1
  67   31   65 1
  68   32   66 1
  69   32   67 1

#	End of record

