#	Name: ASD01120373
#	Creating user name:	WinNT
#	Creation time:	15. 06. 2019 18:59

#	Modifying user name:	WinNT
#	Modification time:	15. 06. 2019 18:59

#	Program:	/corina/corina34_cracker 3.40 0067  02.08.2006

@<TRIPOS>MOLECULE
ASD01120373
  58   58    0    0    0
SMALL
NO_CHARGES


@<TRIPOS>ATOM
   1 P1            -0.0180     1.4758     0.0102 P.3     
   2 O2             0.0021    -0.0041     0.0020 O.2     
   3 O3             1.4924     2.0330    -0.0013 O.3     
   4 O4            -0.7967     2.0091    -1.2942 O.3     
   5 C5            -1.9495     4.4211     4.5317 C.3     
   6 O6            -3.3212     4.1503     4.2365 O.3     
   7 C7            -1.6425     3.9932     5.9692 C.3     
   8 O8            -2.5157     4.6792     6.8685 O.3     
   9 C9            -1.8567     2.4821     6.1005 C.3     
  10 O10           -3.2286     2.1702     5.8504 O.3     
  11 C11           -0.9726     1.7615     5.0781 C.3     
  12 O12           -1.2178     0.3551     5.1419 O.3     
  13 C13           -1.3055     2.2756     3.6750 C.3     
  14 O14           -1.1148     3.6912     3.6302 O.3     
  15 C15           -0.3850     1.6043     2.6538 C.3     
  16 O16           -0.7716     1.9950     1.3348 O.3     
  17 H17            1.5557     2.9980     0.0033 H       
  18 H18           -0.3973     1.7338    -2.1307 H       
  19 H19           -1.7578     5.4885     4.4214 H       
  20 H20           -3.5867     4.3969     3.3400 H       
  21 H21           -0.6076     4.2375     6.2089 H       
  22 H22           -2.4371     5.6424     6.8351 H       
  23 H23           -1.5876     2.1619     7.1071 H       
  24 H24           -3.8466     2.5992     6.4579 H       
  25 H25            0.0761     1.9588     5.3000 H       
  26 H26           -1.0323    -0.0377     6.0058 H       
  27 H27           -2.3433     2.0410     3.4386 H       
  28 H28            0.6450     1.9108     2.8364 H       
  29 H29           -0.4642     0.5214     2.7499 H       
  30 P30           10.3843    12.1559    14.2479 P.3     
  31 O31           10.4044    10.6760    14.2398 O.2     
  32 O32           11.8947    12.7131    14.2365 O.3     
  33 O33            9.6056    12.6892    12.9436 O.3     
  34 C34            8.4528    15.1012    18.7695 C.3     
  35 O35            7.0811    14.8304    18.4743 O.3     
  36 C36            8.7598    14.6732    20.2070 C.3     
  37 O37            7.8865    15.3593    21.1063 O.3     
  38 C38            8.5456    13.1622    20.3383 C.3     
  39 O39            7.1737    12.8503    20.0881 O.3     
  40 C40            9.4297    12.4415    19.3158 C.3     
  41 O41            9.1845    11.0352    19.3797 O.3     
  42 C42            9.0968    12.9557    17.9128 C.3     
  43 O43            9.2875    14.3713    17.8680 O.3     
  44 C44           10.0173    12.2844    16.8916 C.3     
  45 O45            9.6307    12.6751    15.5726 O.3     
  46 H46           11.9580    13.6780    14.2411 H       
  47 H47           10.0050    12.4138    12.1071 H       
  48 H48            8.6445    16.1686    18.6592 H       
  49 H49            6.8156    15.0770    17.5777 H       
  50 H50            9.7947    14.9176    20.4466 H       
  51 H51            7.9652    16.3225    21.0729 H       
  52 H52            8.8147    12.8419    21.3449 H       
  53 H53            6.5557    13.2793    20.6957 H       
  54 H54           10.4784    12.6389    19.5378 H       
  55 H55            9.3700    10.6424    20.2436 H       
  56 H56            8.0589    12.7211    17.6764 H       
  57 H57           11.0473    12.5909    17.0742 H       
  58 H58            9.9381    11.2015    16.9877 H       
@<TRIPOS>BOND
   1    1    2 2
   2    1    3 1
   3    1    4 1
   4    1   16 1
   5    3   17 1
   6    4   18 1
   7    5    6 1
   8    5    7 1
   9    5   14 1
  10    5   19 1
  11    6   20 1
  12    7    8 1
  13    7    9 1
  14    7   21 1
  15    8   22 1
  16    9   10 1
  17    9   11 1
  18    9   23 1
  19   10   24 1
  20   11   12 1
  21   11   13 1
  22   11   25 1
  23   12   26 1
  24   13   14 1
  25   13   15 1
  26   13   27 1
  27   15   16 1
  28   15   28 1
  29   15   29 1
  30   30   31 2
  31   30   32 1
  32   30   33 1
  33   30   45 1
  34   32   46 1
  35   33   47 1
  36   34   35 1
  37   34   36 1
  38   34   43 1
  39   34   48 1
  40   35   49 1
  41   36   37 1
  42   36   38 1
  43   36   50 1
  44   37   51 1
  45   38   39 1
  46   38   40 1
  47   38   52 1
  48   39   53 1
  49   40   41 1
  50   40   42 1
  51   40   54 1
  52   41   55 1
  53   42   43 1
  54   42   44 1
  55   42   56 1
  56   44   45 1
  57   44   57 1
  58   44   58 1

#	End of record

