#	Name: ASD05430158
#	Creating user name:	WinNT
#	Creation time:	15. 06. 2019 20:59

#	Modifying user name:	WinNT
#	Modification time:	15. 06. 2019 20:59

#	Program:	/corina/corina34_cracker 3.40 0067  02.08.2006

@<TRIPOS>MOLECULE
ASD05430158
  58   63    0    0    0
SMALL
NO_CHARGES


@<TRIPOS>ATOM
   1 C1            -0.0102     1.3700    -0.1552 C.ar    
   2 C2             0.0204    -0.0143    -0.3187 C.ar    
   3 C3             1.2360    -0.6826    -0.3844 C.ar    
   4 C4             2.4181     0.0192    -0.2878 C.ar    
   5 C5             2.3953     1.4081    -0.1236 C.ar    
   6 C6             1.1713     2.0808    -0.0580 C.ar    
   7 O7             4.8687     0.1431     0.2399 O.3     
   8 C8             4.8303     1.4988     0.0683 C.2     
   9 C9             3.6564     2.1594    -0.0198 C.2     
  10 C10            6.0892    -0.4023     0.7516 C.3     
  11 C11            6.9457     0.5534     1.5923 C.3     
  12 N12            7.1425     1.7862     0.8269 N.pl3   
  13 C13            6.1200     2.2152    -0.0169 C.2     
  14 N14           -1.1794    -0.7337    -0.4167 N.pl3   
  15 C15           -1.5008    -1.6549    -1.3795 C.2     
  16 C16           -2.7403    -2.0990    -1.0962 C.2     
  17 N17           -3.1683    -1.4696     0.0080 N.2     
  18 C18           -2.2399    -0.6535     0.4278 C.2     
  19 C19           -3.5130    -3.1252    -1.8843 C.3     
  20 C20            8.3625     2.5842     0.9349 C.3     
  21 C21            8.6872     3.1606    -0.4475 C.3     
  22 O22            7.5518     3.8428    -0.9701 O.3     
  23 N23            6.3112     3.1865    -0.8477 N.2     
  24 C24            8.1488     3.7079     1.9160 C.ar    
  25 N25            6.9279     4.1533     2.1401 N.ar    
  26 C26            9.2340     4.2551     2.5738 C.ar    
  27 C27            9.0279     5.2883     3.4749 C.ar    
  28 C28            7.7297     5.7350     3.6817 C.ar    
  29 C29           -1.1586     3.4398     0.0717 C.3     
  30 O30           -1.2021     2.0214    -0.0970 O.3     
  31 C31            6.6921     5.1337     2.9895 C.ar    
  32 F32            7.4815     6.7390     4.5509 F       
  33 C33            6.0894    -1.8792     1.1490 C.3     
  34 C34            6.8231    -1.4264    -0.1150 C.3     
  35 H35            1.2550    -1.7550    -0.5111 H       
  36 H36            3.3620    -0.5032    -0.3384 H       
  37 H37            1.1491     3.1532     0.0683 H       
  38 H38            3.6428     3.2393    -0.0140 H       
  39 H39            6.4338     0.7793     2.5278 H       
  40 H40            7.9111     0.0933     1.8027 H       
  41 H41           -0.8795    -1.9647    -2.2068 H       
  42 H42           -2.3069    -0.0160     1.2971 H       
  43 H43           -3.2988    -4.1200    -1.4937 H       
  44 H44           -4.5803    -2.9225    -1.7965 H       
  45 H45           -3.2187    -3.0753    -2.9326 H       
  46 H46            9.1850     1.9534     1.2720 H       
  47 H47            9.5205     3.8580    -0.3620 H       
  48 H48            8.9639     2.3499    -1.1215 H       
  49 H49           10.2304     3.8822     2.3884 H       
  50 H50            9.8571     5.7347     4.0035 H       
  51 H51           -0.6481     3.6792     1.0045 H       
  52 H52           -0.6200     3.8886    -0.7628 H       
  53 H53           -2.1747     3.8333     0.1022 H       
  54 H54            5.6790     5.4747     3.1436 H       
  55 H55            6.6963    -2.1696     2.0066 H       
  56 H56            5.1608    -2.4353     1.0201 H       
  57 H57            6.3772    -1.6847    -1.0756 H       
  58 H58            7.9128    -1.4190    -0.0891 H       
@<TRIPOS>BOND
   1    1    2 ar
   2    1    6 ar
   3    1   30 1
   4    2    3 ar
   5    2   14 1
   6    3    4 ar
   7    3   35 1
   8    4    5 ar
   9    4   36 1
  10    5    6 ar
  11    5    9 1
  12    6   37 1
  13    7    8 1
  14    7   10 1
  15    8    9 2
  16    8   13 1
  17    9   38 1
  18   10   11 1
  19   10   33 1
  20   10   34 1
  21   11   12 1
  22   11   39 1
  23   11   40 1
  24   12   13 1
  25   12   20 1
  26   13   23 2
  27   14   15 1
  28   14   18 1
  29   15   16 2
  30   15   41 1
  31   16   17 1
  32   16   19 1
  33   17   18 2
  34   18   42 1
  35   19   43 1
  36   19   44 1
  37   19   45 1
  38   20   21 1
  39   20   24 1
  40   20   46 1
  41   21   22 1
  42   21   47 1
  43   21   48 1
  44   22   23 1
  45   24   25 ar
  46   24   26 ar
  47   25   31 ar
  48   26   27 ar
  49   26   49 1
  50   27   28 ar
  51   27   50 1
  52   28   31 ar
  53   28   32 1
  54   29   30 1
  55   29   51 1
  56   29   52 1
  57   29   53 1
  58   31   54 1
  59   33   34 1
  60   33   55 1
  61   33   56 1
  62   34   57 1
  63   34   58 1

#	End of record

