#	Name: ASD03731622
#	Creating user name:	WinNT
#	Creation time:	15. 06. 2019 20:46

#	Modifying user name:	WinNT
#	Modification time:	15. 06. 2019 20:46

#	Program:	/corina/corina34_cracker 3.40 0067  02.08.2006

@<TRIPOS>MOLECULE
ASD03731622
  43   45    0    0    0
SMALL
NO_CHARGES


@<TRIPOS>ATOM
   1 C1            -0.1296     1.4749    -0.4019 C.2     
   2 C2            -0.0957    -0.0005    -0.3800 C.ar    
   3 C3            -0.0926    -0.7190    -1.5786 C.ar    
   4 C4            -0.0605    -2.0953    -1.5542 C.ar    
   5 C5            -0.0314    -2.7702    -0.3391 C.ar    
   6 C6            -0.0343    -2.0590     0.8555 C.ar    
   7 C7            -0.0606    -0.6825     0.8392 C.ar    
   8 O8            -0.1550     2.0668    -1.4636 O.2     
   9 N9            -0.1381     2.1659     0.7552 N.am    
  10 S10           -0.1762     3.8213     0.7307 S.o2    
  11 O11           -0.1502     4.1928     2.1021 O.2     
  12 O12            0.8816     4.1833    -0.1464 O.2     
  13 C13           -1.7826     4.2262    -0.0081 C.3     
  14 O14           -0.0007    -4.1266    -0.3190 O.3     
  15 C15           -1.1580    -4.7870    -0.0550 C.ar    
  16 C16           -1.1729    -6.1861    -0.0047 C.ar    
  17 C17           -2.3659    -6.8545     0.2670 C.ar    
  18 C18           -3.5243    -6.1346     0.4846 C.ar    
  19 C19           -3.5053    -4.7509     0.4339 C.ar    
  20 C20           -2.3266    -4.0783     0.1710 C.ar    
  21 N21            0.2129    -8.0304    -1.0596 N.pl3   
  22 N22            1.5482    -8.4476    -0.9883 N.2     
  23 C23            2.1869    -7.6579    -0.1626 C.2     
  24 C24            1.2909    -6.7071     0.3264 C.2     
  25 C25            0.0709    -6.9513    -0.2391 C.2     
  26 C26           -0.8405    -8.6407    -1.8745 C.3     
  27 Cl27          -5.0096    -6.9674     0.8222 Cl      
  28 H28           -0.1159    -0.1954    -2.5229 H       
  29 H29           -0.0581    -2.6512    -2.4801 H       
  30 H30           -0.0117    -2.5869     1.7975 H       
  31 H31           -0.0583    -0.1306     1.7675 H       
  32 H32           -0.1219     1.6937     1.6023 H       
  33 H33           -2.5806     3.8099     0.6067 H       
  34 H34           -1.8943     5.3091    -0.0639 H       
  35 H35           -1.8383     3.8031    -1.0111 H       
  36 H36           -2.3842    -7.9336     0.3068 H       
  37 H37           -4.4150    -4.1944     0.6047 H       
  38 H38           -2.3177    -2.9988     0.1373 H       
  39 H39            3.2326    -7.7307     0.0972 H       
  40 H40            1.5205    -5.9182     1.0274 H       
  41 H41           -1.3996    -9.3550    -1.2702 H       
  42 H42           -1.5150    -7.8648    -2.2368 H       
  43 H43           -0.3907    -9.1562    -2.7230 H       
@<TRIPOS>BOND
   1    1    2 1
   2    1    8 2
   3    1    9 am
   4    2    3 ar
   5    2    7 ar
   6    3    4 ar
   7    3   28 1
   8    4    5 ar
   9    4   29 1
  10    5    6 ar
  11    5   14 1
  12    6    7 ar
  13    6   30 1
  14    7   31 1
  15    9   10 am
  16    9   32 1
  17   10   11 2
  18   10   12 2
  19   10   13 1
  20   13   33 1
  21   13   34 1
  22   13   35 1
  23   14   15 1
  24   15   16 ar
  25   15   20 ar
  26   16   17 ar
  27   16   25 1
  28   17   18 ar
  29   17   36 1
  30   18   19 ar
  31   18   27 1
  32   19   20 ar
  33   19   37 1
  34   20   38 1
  35   21   22 1
  36   21   25 1
  37   21   26 1
  38   22   23 2
  39   23   24 1
  40   23   39 1
  41   24   25 2
  42   24   40 1
  43   26   41 1
  44   26   42 1
  45   26   43 1

#	End of record

