#	Name: ASD01900478
#	Creating user name:	WinNT
#	Creation time:	15. 06. 2019 19:52

#	Modifying user name:	WinNT
#	Modification time:	15. 06. 2019 19:52

#	Program:	/corina/corina34_cracker 3.40 0067  02.08.2006

@<TRIPOS>MOLECULE
ASD01900478
  32   34    0    0    0
SMALL
NO_CHARGES


@<TRIPOS>ATOM
   1 C1            -0.9262     2.3237    -3.1896 C.1     
   2 C2            -0.4450     2.5516    -1.8603 C.ar    
   3 C3             0.6912     3.3392    -1.6404 C.ar    
   4 C4             1.1159     3.5287    -0.3321 C.ar    
   5 C5             0.4053     2.9358     0.7035 C.ar    
   6 N6            -0.6612     2.1991     0.4610 N.ar    
   7 C7            -1.1048     1.9966    -0.7623 C.ar    
   8 N8            -1.3080     2.1429    -4.2442 N.1     
   9 O9             2.2139     4.2848    -0.0681 O.3     
  10 C10            2.0917     5.6371    -0.1464 C.ar    
  11 C11            3.2030     6.4467     0.0478 C.ar    
  12 C12            3.0792     7.8205    -0.0322 C.ar    
  13 C13            1.8431     8.3909    -0.3069 C.ar    
  14 C14            0.7327     7.5803    -0.5009 C.ar    
  15 C15            0.8587     6.2066    -0.4259 C.ar    
  16 Cl16           4.7476     5.7329     0.3916 Cl      
  17 N17            1.7166     9.7820    -0.3877 N.pl3   
  18 N18            2.8008    10.5604    -0.8137 N.pl3   
  19 N19            4.0339    10.0767    -1.2696 N.2     
  20 C20            4.7870    11.1017    -1.5762 C.2     
  21 C21            4.0588    12.2693    -1.3258 C.2     
  22 C22            2.8396    11.9084    -0.8630 C.2     
  23 H23            1.2235     3.7872    -2.4665 H       
  24 H24            0.7314     3.0800     1.7230 H       
  25 H25           -1.9853     1.3911    -0.9180 H       
  26 H26            3.9433     8.4505     0.1191 H       
  27 H27           -0.2288     8.0234    -0.7142 H       
  28 H28           -0.0043     5.5761    -0.5813 H       
  29 H29            0.8783    10.2075    -0.1487 H       
  30 H30            5.7968    11.0544    -1.9564 H       
  31 H31            4.4069    13.2802    -1.4785 H       
  32 H32            2.0413    12.5791    -0.5813 H       
@<TRIPOS>BOND
   1    1    2 1
   2    1    8 3
   3    2    3 ar
   4    2    7 ar
   5    3    4 ar
   6    3   23 1
   7    4    5 ar
   8    4    9 1
   9    5    6 ar
  10    5   24 1
  11    6    7 ar
  12    7   25 1
  13    9   10 1
  14   10   11 ar
  15   10   15 ar
  16   11   12 ar
  17   11   16 1
  18   12   13 ar
  19   12   26 1
  20   13   14 ar
  21   13   17 1
  22   14   15 ar
  23   14   27 1
  24   15   28 1
  25   17   18 1
  26   17   29 1
  27   18   19 1
  28   18   22 1
  29   19   20 2
  30   20   21 1
  31   20   30 1
  32   21   22 2
  33   21   31 1
  34   22   32 1

#	End of record

