#	Name: ASD02408440
#	Creating user name:	WinNT
#	Creation time:	15. 06. 2019 20:21

#	Modifying user name:	WinNT
#	Modification time:	15. 06. 2019 20:21

#	Program:	/corina/corina34_cracker 3.40 0067  02.08.2006

@<TRIPOS>MOLECULE
ASD02408440
  31   32    0    0    0
SMALL
NO_CHARGES


@<TRIPOS>ATOM
   1 C1            -0.0168     1.3888     0.0097 C.2     
   2 C2             0.0021    -0.0041     0.0020 C.2     
   3 N3            -1.2812    -0.4183     0.0120 N.pl3   
   4 N4            -2.1111     0.7078     0.0260 N.2     
   5 C5            -1.3754     1.7831     0.0310 C.2     
   6 C6            -1.7305    -1.8126     0.0084 C.3     
   7 C7            -2.5613    -2.0840     1.2642 C.3     
   8 C8            -3.0306    -3.5403     1.2604 C.3     
   9 C9            -3.8855    -3.7974     0.0178 C.3     
  10 C10           -3.0547    -3.5260    -1.2379 C.3     
  11 C11           -2.5854    -2.0697    -1.2341 C.3     
  12 C12            1.1508     2.2782     0.0033 C.2     
  13 N13            1.1232    -0.8087    -0.0137 N.pl3   
  14 O14            2.2733     1.8086    -0.0099 O.2     
  15 N15            0.9796     3.6150     0.0121 N.am    
  16 H16           -1.7398     2.7997     0.0420 H       
  17 H17           -0.8638    -2.4736    -0.0037 H       
  18 H18           -1.9522    -1.9009     2.1494 H       
  19 H19           -3.4280    -1.4230     1.2763 H       
  20 H20           -2.1639    -4.2012     1.2482 H       
  21 H21           -3.6225    -3.7336     2.1550 H       
  22 H22           -4.2198    -4.8348     0.0151 H       
  23 H23           -4.7522    -3.1364     0.0300 H       
  24 H24           -2.1880    -4.1870    -1.2501 H       
  25 H25           -3.6638    -3.7091    -2.1231 H       
  26 H26           -3.4521    -1.4088    -1.2220 H       
  27 H27           -1.9935    -1.8764    -2.1288 H       
  28 H28            2.0070    -0.4090    -0.0202 H       
  29 H29            1.0274    -1.7740    -0.0182 H       
  30 H30            0.0848     3.9894     0.0227 H       
  31 H31            1.7512     4.2028     0.0079 H       
@<TRIPOS>BOND
   1    1    2 2
   2    1   12 1
   3    1    5 1
   4    2    3 1
   5    2   13 1
   6    3    4 1
   7    3    6 1
   8    4    5 2
   9    5   16 1
  10    6    7 1
  11    6   11 1
  12    6   17 1
  13    7    8 1
  14    7   18 1
  15    7   19 1
  16    8    9 1
  17    8   20 1
  18    8   21 1
  19    9   10 1
  20    9   22 1
  21    9   23 1
  22   10   11 1
  23   10   24 1
  24   10   25 1
  25   11   26 1
  26   11   27 1
  27   12   14 2
  28   12   15 am
  29   13   28 1
  30   13   29 1
  31   15   30 1
  32   15   31 1

#	End of record

