#	Name: ASD01900391
#	Creating user name:	WinNT
#	Creation time:	15. 06. 2019 19:51

#	Modifying user name:	WinNT
#	Modification time:	15. 06. 2019 19:51

#	Program:	/corina/corina34_cracker 3.40 0067  02.08.2006

@<TRIPOS>MOLECULE
ASD01900391
  35   38    0    0    0
SMALL
NO_CHARGES


@<TRIPOS>ATOM
   1 C1            -0.9058    -2.6360     1.1941 C.ar    
   2 C2            -0.3714    -1.7299     0.2872 C.ar    
   3 N3             0.9241    -1.6469     0.0864 N.ar    
   4 C4             1.7799    -2.4265     0.7430 C.ar    
   5 C5             1.3087    -3.3679     1.6780 C.ar    
   6 C6            -0.0636    -3.4697     1.9032 C.ar    
   7 C7             3.2386    -2.5604     0.7320 C.2     
   8 N8             3.5589    -3.4956     1.5864 N.2     
   9 N9             2.4056    -4.0132     2.1848 N.pl3   
  10 N10            4.1285    -1.8204    -0.0526 N.pl3   
  11 C11            5.5029    -2.0690     0.0254 C.ar    
  12 C12            5.9631    -3.3544     0.2797 C.ar    
  13 C13            6.4083    -1.0313    -0.1572 C.ar    
  14 C14            7.7649    -1.2772    -0.0806 C.ar    
  15 C15            8.2244    -2.5600     0.1786 C.ar    
  16 C16            7.3210    -3.5989     0.3566 C.ar    
  17 Cl17           7.8970    -5.2040     0.6815 Cl      
  18 O18            9.5609    -2.8012     0.2530 O.3     
  19 C19           10.1831    -3.2799    -0.8508 C.ar    
  20 N20           11.4621    -3.6119    -0.7781 N.ar    
  21 N21            9.4958    -3.4092    -1.9743 N.ar    
  22 C22           10.0724    -3.8739    -3.0705 C.ar    
  23 C23           11.4122    -4.2265    -3.0317 C.ar    
  24 C24           12.1001    -4.0829    -1.8370 C.ar    
  25 H25           -1.9737    -2.6852     1.3471 H       
  26 H26           -1.0348    -1.0804    -0.2645 H       
  27 H27           -0.4574    -4.1812     2.6139 H       
  28 H28            2.3856    -4.7168     2.8523 H       
  29 H29            3.7929    -1.1346    -0.6509 H       
  30 H30            5.2600    -4.1625     0.4177 H       
  31 H31            6.0511    -0.0323    -0.3594 H       
  32 H32            8.4685    -0.4703    -0.2229 H       
  33 H33            9.5060    -3.9775    -3.9843 H       
  34 H34           11.9081    -4.6089    -3.9117 H       
  35 H35           13.1449    -4.3484    -1.7724 H       
@<TRIPOS>BOND
   1    1    2 ar
   2    1    6 ar
   3    1   25 1
   4    2    3 ar
   5    2   26 1
   6    3    4 ar
   7    4    5 ar
   8    4    7 1
   9    5    6 ar
  10    5    9 1
  11    6   27 1
  12    7    8 2
  13    7   10 1
  14    8    9 1
  15    9   28 1
  16   10   11 1
  17   10   29 1
  18   11   12 ar
  19   11   13 ar
  20   12   16 ar
  21   12   30 1
  22   13   14 ar
  23   13   31 1
  24   14   15 ar
  25   14   32 1
  26   15   16 ar
  27   15   18 1
  28   16   17 1
  29   18   19 1
  30   19   20 ar
  31   19   21 ar
  32   20   24 ar
  33   21   22 ar
  34   22   23 ar
  35   22   33 1
  36   23   24 ar
  37   23   34 1
  38   24   35 1

#	End of record

