#	Name: ASD00100135
#	Creating user name:	WinNT
#	Creation time:	15. 06. 2019 18:30

#	Modifying user name:	WinNT
#	Modification time:	15. 06. 2019 18:30

#	Program:	/corina/corina34_cracker 3.40 0067  02.08.2006

@<TRIPOS>MOLECULE
ASD00100135
  38   40    0    0    0
SMALL
NO_CHARGES


@<TRIPOS>ATOM
   1 C1            -0.1206     1.4743    -0.1546 C.2     
   2 N2            -0.2370     0.1688    -0.1642 N.2     
   3 C3             0.9913    -0.3881    -0.0163 C.2     
   4 C4             1.8950     0.6175     0.0879 C.2     
   5 N5             1.1927     1.7954     0.0005 N.pl3   
   6 N6            -1.1614     2.3776    -0.2865 N.pl3   
   7 C7             1.7542     3.1471     0.0622 C.3     
   8 C8             1.6815     3.6571     1.4784 C.ar    
   9 C9             2.6829     3.3372     2.3839 C.ar    
  10 C10            2.6131     3.8082     3.6867 C.ar    
  11 C11            1.5470     4.5944     4.0796 C.ar    
  12 C12            0.5503     4.9114     3.1756 C.ar    
  13 C13            0.6207     4.4482     1.8746 C.ar    
  14 O14            3.7302     2.5633     1.9952 O.3     
  15 C15            4.7241     2.2742     2.9804 C.3     
  16 C16            1.2922    -1.8400     0.0246 C.ar    
  17 C17            0.2613    -2.7722    -0.0950 C.ar    
  18 C18            0.5475    -4.1225    -0.0561 C.ar    
  19 C19            1.8545    -4.5511     0.1016 C.ar    
  20 C20            2.8805    -3.6296     0.2207 C.ar    
  21 C21            2.6063    -2.2776     0.1769 C.ar    
  22 Cl22           2.2077    -6.2500     0.1509 Cl      
  23 Cl23          -1.3779    -2.2358    -0.2917 Cl      
  24 H24            2.9623     0.5127     0.2158 H       
  25 H25           -2.0629     2.0585    -0.4490 H       
  26 H26           -0.9891     3.3296    -0.2164 H       
  27 H27            2.7944     3.1236    -0.2626 H       
  28 H28            1.1843     3.8074    -0.5915 H       
  29 H29            3.3911     3.5602     4.3935 H       
  30 H30            1.4922     4.9614     5.0939 H       
  31 H31           -0.2826     5.5255     3.4849 H       
  32 H32           -0.1567     4.7012     1.1689 H       
  33 H33            5.1645     3.2056     3.3364 H       
  34 H34            4.2646     1.7467     3.8162 H       
  35 H35            5.5015     1.6499     2.5399 H       
  36 H36           -0.2496    -4.8455    -0.1486 H       
  37 H37            3.8983    -3.9694     0.3439 H       
  38 H38            3.4085    -1.5599     0.2655 H       
@<TRIPOS>BOND
   1    1    2 2
   2    1    5 1
   3    1    6 1
   4    2    3 1
   5    3    4 2
   6    3   16 1
   7    4    5 1
   8    4   24 1
   9    5    7 1
  10    6   25 1
  11    6   26 1
  12    7    8 1
  13    7   27 1
  14    7   28 1
  15    8    9 ar
  16    8   13 ar
  17    9   10 ar
  18    9   14 1
  19   10   11 ar
  20   10   29 1
  21   11   12 ar
  22   11   30 1
  23   12   13 ar
  24   12   31 1
  25   13   32 1
  26   14   15 1
  27   15   33 1
  28   15   34 1
  29   15   35 1
  30   16   17 ar
  31   16   21 ar
  32   17   18 ar
  33   17   23 1
  34   18   19 ar
  35   18   36 1
  36   19   20 ar
  37   19   22 1
  38   20   21 ar
  39   20   37 1
  40   21   38 1

#	End of record

