#	Name: ASD05060012
#	Creating user name:	WinNT
#	Creation time:	15. 06. 2019 20:56

#	Modifying user name:	WinNT
#	Modification time:	15. 06. 2019 20:56

#	Program:	/corina/corina34_cracker 3.40 0067  02.08.2006

@<TRIPOS>MOLECULE
ASD05060012
 120  120    0    0    0
SMALL
NO_CHARGES


@<TRIPOS>ATOM
   1 N1            -2.6426     4.6908    -2.4648 N.3     
   2 N2            -3.0524     3.5197    -3.2227 N.3     
   3 C3            -4.5167     3.4146    -3.2781 C.3     
   4 C4            -5.0169     2.7150    -2.0406 C.2     
   5 N5            -6.1158     3.2144    -1.4012 N.am    
   6 C6            -6.5420     2.4696    -0.1947 C.3     
   7 C7            -7.3598     3.3895     0.6750 C.2     
   8 N8            -7.3256     3.2268     2.0260 N.am    
   9 C9            -8.1461     4.1587     2.8246 C.3     
  10 C10           -7.2898     4.7511     3.9139 C.2     
  11 N11           -7.4634     6.0646     4.2458 N.am    
  12 C12           -6.5870     6.5680     5.3277 C.3     
  13 C13           -5.8710     7.7991     4.8345 C.2     
  14 N14           -4.6266     8.0760     5.3116 N.am    
  15 C15           -3.9750     9.2944     4.7913 C.3     
  16 C16           -2.6026     8.9334     4.2841 C.2     
  17 N17           -2.0052     9.7491     3.3659 N.am    
  18 C18           -0.6606     9.3226     2.9162 C.3     
  19 C19           -0.6519     9.2692     1.4101 C.2     
  20 C20           -0.0123     8.1240     0.7106 C.2     
  21 C21           -0.0065     8.0692    -0.7956 C.3     
  22 N22           -0.2202     6.6720    -1.2223 N.am    
  23 C23           -1.0081     6.4827    -2.3160 C.2     
  24 C24           -1.2655     5.0783    -2.7986 C.3     
  25 O25           -1.4964     7.4308    -2.8936 O.2     
  26 O26            0.5030     7.2378     1.3492 O.2     
  27 O27           -1.1651    10.1567     0.7713 O.2     
  28 O28           -2.0388     7.9369     4.6843 O.2     
  29 O29           -6.3961     8.5324     4.0237 O.2     
  30 O30           -6.4613     4.0741     4.4851 O.2     
  31 O31           -8.0393     4.2624     0.1779 O.2     
  32 O32           -4.4541     1.7264    -1.6202 O.2     
  33 C33           -5.1262     4.8160    -3.3534 C.3     
  34 C34            0.3859    10.3281     3.4005 C.3     
  35 C35            0.4461    10.3052     4.9291 C.3     
  36 C36            0.9495     8.9390     5.3993 C.3     
  37 C37            1.4006    11.3964     5.4183 C.3     
  38 C38           -0.2866     4.1182    -2.1198 C.3     
  39 O39           -0.4522     2.8067    -2.6623 O.3     
  40 C40           -8.6754     5.2765     1.9239 C.3     
  41 C41           -7.5046     5.9498     1.2050 C.3     
  42 C42           -7.0303     7.1544     2.0204 C.3     
  43 C43           -9.6371     4.6864     0.8905 C.3     
  44 C44           -7.3899     1.2649    -0.6077 C.3     
  45 C45           -6.5277     0.2832    -1.4038 C.3     
  46 C46           -7.3757    -0.9215    -1.8168 C.3     
  47 C47           -6.5135    -1.9032    -2.6129 C.3     
  48 N48           -7.3276    -3.0598    -3.0095 N.3     
  49 C49           -4.8090     9.8727     3.6463 C.3     
  50 C50           -4.8190     8.9032     2.4927 C.2     
  51 O51           -4.4260     7.7670     2.6521 O.2     
  52 N52           -5.2646     9.2988     1.2838 N.am    
  53 C53           -8.0673     5.6712     7.1035 C.2     
  54 C54           -7.4340     6.9223     6.5516 C.3     
  55 O55           -7.8623     4.6055     6.5724 O.2     
  56 O56           -8.8592     5.7408     8.1850 O.3     
  57 C57           -2.4621     8.3945    -0.9123 C.2     
  58 C58           -1.1300     8.9507    -1.3450 C.3     
  59 O59           -2.5102     7.3711    -0.2718 O.2     
  60 O60           -3.5951     9.0361    -1.2384 O.3     
  61 H61           -3.2803     5.4586    -2.6126 H       
  62 H62           -2.6554     3.5321    -4.1502 H       
  63 H63           -4.8070     2.8442    -4.1604 H       
  64 H64           -6.5851     4.0027    -1.7163 H       
  65 H65           -5.6640     2.1308     0.3552 H       
  66 H66           -6.7898     2.5338     2.4426 H       
  67 H67           -8.9821     3.6195     3.2700 H       
  68 H68           -8.1161     6.6290     3.8028 H       
  69 H69           -5.8578     5.8027     5.5936 H       
  70 H70           -4.1900     7.5019     5.9602 H       
  71 H71           -3.8871    10.0311     5.5899 H       
  72 H72           -2.4328    10.5528     3.0310 H       
  73 H73           -0.4364     8.3347     3.3187 H       
  74 H74            0.9541     8.4227    -1.1702 H       
  75 H75            0.1806     5.9270    -0.7478 H       
  76 H76           -1.1274     5.0344    -3.8789 H       
  77 H77           -4.6679     5.3679    -4.1741 H       
  78 H78           -6.1998     4.7366    -3.5236 H       
  79 H79           -4.9448     5.3419    -2.4160 H       
  80 H80            1.3616    10.0611     2.9944 H       
  81 H81            0.1130    11.3278     3.0626 H       
  82 H82           -0.5495    10.4849     5.3347 H       
  83 H83            1.9452     8.7594     4.9937 H       
  84 H84            0.9924     8.9227     6.4883 H       
  85 H85            0.2695     8.1617     5.0508 H       
  86 H86            1.0420    12.3697     5.0834 H       
  87 H87            1.4434    11.3801     6.5074 H       
  88 H88            2.3962    11.2168     5.0128 H       
  89 H89            0.7346     4.4572    -2.2940 H       
  90 H90           -0.4840     4.0957    -1.0480 H       
  91 H91            0.1379     2.1443    -2.2773 H       
  92 H92           -9.2016     6.0135     2.5306 H       
  93 H93           -6.6860     5.2380     1.0984 H       
  94 H94           -7.8272     6.2830     0.2186 H       
  95 H95           -6.4150     7.7986     1.3923 H       
  96 H96           -7.8945     7.7139     2.3783 H       
  97 H97           -6.4433     6.8087     2.8714 H       
  98 H98          -10.6456     4.6644     1.3036 H       
  99 H99           -9.6262     5.3019    -0.0090 H       
 100 H100          -9.3246     3.6725     0.6408 H       
 101 H101          -7.7759     0.7696     0.2833 H       
 102 H102          -8.2224     1.6013    -1.2258 H       
 103 H103          -6.1418     0.7785    -2.2948 H       
 104 H104          -5.6953    -0.0532    -0.7857 H       
 105 H105          -7.7616    -1.4167    -0.9258 H       
 106 H106          -8.2081    -0.5851    -2.4349 H       
 107 H107          -6.1275    -1.4079    -3.5039 H       
 108 H108          -5.6810    -2.2395    -1.9949 H       
 109 H109          -8.1416    -2.7679    -3.5294 H       
 110 H110          -6.7804    -3.7234    -3.5371 H       
 111 H111          -5.8300    10.0402     3.9891 H       
 112 H112          -4.3748    10.8186     3.3223 H       
 113 H113          -5.5790    10.2075     1.1563 H       
 114 H114          -5.2711     8.6747     0.5413 H       
 115 H115          -6.7997     7.3751     7.3137 H       
 116 H116          -8.2136     7.6270     6.2622 H       
 117 H117          -9.2428     4.9118     8.5023 H       
 118 H118          -1.0173     9.9644    -0.9607 H       
 119 H119          -1.0794     8.9671    -2.4337 H       
 120 H120          -4.4252     8.6410    -0.9386 H       
@<TRIPOS>BOND
   1    1    2 1
   2    1   24 1
   3    1   61 1
   4    2    3 1
   5    2   62 1
   6    3    4 1
   7    3   33 1
   8    3   63 1
   9    4    5 am
  10    4   32 2
  11    5    6 1
  12    5   64 1
  13    6    7 1
  14    6   44 1
  15    6   65 1
  16    7    8 am
  17    7   31 2
  18    8    9 1
  19    8   66 1
  20    9   10 1
  21    9   40 1
  22    9   67 1
  23   10   11 am
  24   10   30 2
  25   11   12 1
  26   11   68 1
  27   12   13 1
  28   12   54 1
  29   12   69 1
  30   13   14 am
  31   13   29 2
  32   14   15 1
  33   14   70 1
  34   15   16 1
  35   15   49 1
  36   15   71 1
  37   16   17 am
  38   16   28 2
  39   17   18 1
  40   17   72 1
  41   18   19 1
  42   18   34 1
  43   18   73 1
  44   19   20 1
  45   19   27 2
  46   20   21 1
  47   20   26 2
  48   21   22 1
  49   21   58 1
  50   21   74 1
  51   22   23 am
  52   22   75 1
  53   23   24 1
  54   23   25 2
  55   24   38 1
  56   24   76 1
  57   33   77 1
  58   33   78 1
  59   33   79 1
  60   34   35 1
  61   34   80 1
  62   34   81 1
  63   35   36 1
  64   35   37 1
  65   35   82 1
  66   36   83 1
  67   36   84 1
  68   36   85 1
  69   37   86 1
  70   37   87 1
  71   37   88 1
  72   38   39 1
  73   38   89 1
  74   38   90 1
  75   39   91 1
  76   40   41 1
  77   40   43 1
  78   40   92 1
  79   41   42 1
  80   41   93 1
  81   41   94 1
  82   42   95 1
  83   42   96 1
  84   42   97 1
  85   43   98 1
  86   43   99 1
  87   43  100 1
  88   44   45 1
  89   44  101 1
  90   44  102 1
  91   45   46 1
  92   45  103 1
  93   45  104 1
  94   46   47 1
  95   46  105 1
  96   46  106 1
  97   47   48 1
  98   47  107 1
  99   47  108 1
 100   48  109 1
 101   48  110 1
 102   49   50 1
 103   49  111 1
 104   49  112 1
 105   50   51 2
 106   50   52 am
 107   52  113 1
 108   52  114 1
 109   53   54 1
 110   53   55 2
 111   53   56 1
 112   54  115 1
 113   54  116 1
 114   56  117 1
 115   57   58 1
 116   57   59 2
 117   57   60 1
 118   58  118 1
 119   58  119 1
 120   60  120 1

#	End of record

