#	Name: ASD01140615
#	Creating user name:	WinNT
#	Creation time:	15. 06. 2019 19:01

#	Modifying user name:	WinNT
#	Modification time:	15. 06. 2019 19:01

#	Program:	/corina/corina34_cracker 3.40 0067  02.08.2006

@<TRIPOS>MOLECULE
ASD01140615
  36   38    0    0    0
SMALL
NO_CHARGES


@<TRIPOS>ATOM
   1 C1            -0.0170     1.4031     0.0098 C.ar    
   2 C2             0.0021    -0.0041     0.0020 C.ar    
   3 C3             1.1852    -0.6677    -0.0123 C.ar    
   4 C4             2.4064     0.0343    -0.0201 C.ar    
   5 C5             2.4197     1.4227    -0.0133 C.ar    
   6 C6             1.2053     2.1230     0.0020 C.ar    
   7 C7             1.1776     3.5297     0.0092 C.ar    
   8 C8            -0.0179     4.1796     0.0236 C.ar    
   9 C9            -1.2185     3.4719     0.0313 C.ar    
  10 C10           -1.2305     2.1103     0.0193 C.ar    
  11 C11            3.6758    -0.7082    -0.0351 C.2     
  12 C12            3.6671    -2.2152    -0.0421 C.3     
  13 O13            4.7294    -0.1079    -0.0419 O.2     
  14 N14            5.0455    -2.7114    -0.0570 N.pl3   
  15 C15            5.8023    -2.9854     1.0262 C.2     
  16 C16            7.0071    -3.4190     0.5885 C.2     
  17 C17            6.9858    -3.4097    -0.8100 C.2     
  18 N18            5.8085    -2.9910    -1.1980 N.2     
  19 C19            5.3814    -2.8349     2.4653 C.3     
  20 C20            8.1206    -3.8175    -1.7138 C.3     
  21 H21           -0.9261    -0.5562     0.0079 H       
  22 H22            1.1909    -1.7477    -0.0175 H       
  23 H23            3.3574     1.9585    -0.0196 H       
  24 H24            2.1004     4.0907     0.0036 H       
  25 H25           -0.0366     5.2594     0.0294 H       
  26 H26           -2.1538     4.0117     0.0431 H       
  27 H27           -2.1692     1.5764     0.0209 H       
  28 H28            3.1593    -2.5798     0.8508 H       
  29 H29            3.1432    -2.5714    -0.9291 H       
  30 H30            7.8383    -3.7192     1.2093 H       
  31 H31            4.9312    -3.7653     2.8114 H       
  32 H32            6.2537    -2.6039     3.0768 H       
  33 H33            4.6548    -2.0267     2.5488 H       
  34 H34            8.0459    -4.8827    -1.9328 H       
  35 H35            8.0665    -3.2508    -2.6433 H       
  36 H36            9.0703    -3.6141    -1.2190 H       
@<TRIPOS>BOND
   1    1    2 ar
   2    1    6 ar
   3    1   10 ar
   4    2    3 ar
   5    2   21 1
   6    3    4 ar
   7    3   22 1
   8    4    5 ar
   9    4   11 1
  10    5    6 ar
  11    5   23 1
  12    6    7 ar
  13    7    8 ar
  14    7   24 1
  15    8    9 ar
  16    8   25 1
  17    9   10 ar
  18    9   26 1
  19   10   27 1
  20   11   12 1
  21   11   13 2
  22   12   14 1
  23   12   28 1
  24   12   29 1
  25   14   15 1
  26   14   18 1
  27   15   16 2
  28   15   19 1
  29   16   17 1
  30   16   30 1
  31   17   18 2
  32   17   20 1
  33   19   31 1
  34   19   32 1
  35   19   33 1
  36   20   34 1
  37   20   35 1
  38   20   36 1

#	End of record

