#	Name: ASD07301013
#	Creating user name:	WinNT
#	Creation time:	15. 06. 2019 21:10

#	Modifying user name:	WinNT
#	Modification time:	15. 06. 2019 21:10

#	Program:	/corina/corina34_cracker 3.40 0067  02.08.2006

@<TRIPOS>MOLECULE
ASD07301013
  46   47    0    0    0
SMALL
NO_CHARGES


@<TRIPOS>ATOM
   1 C1            -0.0341     1.4626    -0.1357 C.2     
   2 C2            -0.0011    -0.0025    -0.0193 C.2     
   3 C3             1.2780    -0.7089    -0.0453 C.2     
   4 C4             1.3119    -2.2108     0.0740 C.3     
   5 O5             1.0028     2.0970    -0.1227 O.2     
   6 O6            -1.2141     2.1023    -0.2624 O.3     
   7 O7             2.3131    -0.0859    -0.1631 O.2     
   8 O8             2.6668    -2.6623     0.0224 O.3     
   9 C9             2.8114    -4.0800     0.1277 C.3     
  10 N10           -1.1286    -0.6812     0.1090 N.2     
  11 N11           -2.2376    -0.0560     0.3171 N.pl3   
  12 C12           -3.4438    -0.7585     0.3261 C.ar    
  13 C13           -4.6415    -0.0844     0.5507 C.ar    
  14 C14           -5.8342    -0.7821     0.5591 C.ar    
  15 C15           -5.8377    -2.1532     0.3443 C.ar    
  16 C16           -4.6442    -2.8252     0.1209 C.ar    
  17 C17           -3.4514    -2.1303     0.1052 C.ar    
  18 F18           -4.6373     1.2502     0.7606 F       
  19 O19           -7.0113    -2.8387     0.3532 O.3     
  20 C20           -6.9413    -4.2476     0.1252 C.3     
  21 C21           -8.3291    -4.8334     0.1710 C.ar    
  22 C22           -9.0824    -4.9174    -0.9851 C.ar    
  23 C23          -10.3553    -5.4546    -0.9430 C.ar    
  24 C24          -10.8749    -5.9083     0.2549 C.ar    
  25 C25          -10.1212    -5.8252     1.4108 C.ar    
  26 C26           -8.8466    -5.2919     1.3680 C.ar    
  27 C27           -1.1709     3.5495    -0.3725 C.3     
  28 H28            0.8651    -2.5101     1.0220 H       
  29 H29            0.7499    -2.6534    -0.7484 H       
  30 H30            2.3956    -4.4181     1.0769 H       
  31 H31            2.2805    -4.5614    -0.6936 H       
  32 H32            3.8684    -4.3419     0.0801 H       
  33 H33           -2.2333     0.9023     0.4674 H       
  34 H34           -6.7638    -0.2604     0.7332 H       
  35 H35           -4.6489    -3.8923    -0.0453 H       
  36 H36           -2.5238    -2.6536    -0.0735 H       
  37 H37           -6.4996    -4.4359    -0.8534 H       
  38 H38           -6.3260    -4.7105     0.8967 H       
  39 H39           -8.6765    -4.5629    -1.9210 H       
  40 H40          -10.9441    -5.5196    -1.8461 H       
  41 H41          -11.8697    -6.3274     0.2879 H       
  42 H42          -10.5273    -6.1794     2.3468 H       
  43 H43           -8.2564    -5.2303     2.2704 H       
  44 H44           -0.5899     3.8299    -1.2510 H       
  45 H45           -2.1852     3.9369    -0.4687 H       
  46 H46           -0.7053     3.9680     0.5198 H       
@<TRIPOS>BOND
   1    1    2 1
   2    1    5 2
   3    1    6 1
   4    2    3 1
   5    2   10 2
   6    3    4 1
   7    3    7 2
   8    4    8 1
   9    4   28 1
  10    4   29 1
  11    6   27 1
  12    8    9 1
  13    9   30 1
  14    9   31 1
  15    9   32 1
  16   10   11 1
  17   11   12 1
  18   11   33 1
  19   12   13 ar
  20   12   17 ar
  21   13   14 ar
  22   13   18 1
  23   14   15 ar
  24   14   34 1
  25   15   16 ar
  26   15   19 1
  27   16   17 ar
  28   16   35 1
  29   17   36 1
  30   19   20 1
  31   20   21 1
  32   20   37 1
  33   20   38 1
  34   21   22 ar
  35   21   26 ar
  36   22   23 ar
  37   22   39 1
  38   23   24 ar
  39   23   40 1
  40   24   25 ar
  41   24   41 1
  42   25   26 ar
  43   25   42 1
  44   26   43 1
  45   27   44 1
  46   27   45 1
  47   27   46 1

#	End of record

