#	Name: ASD03092781
#	Creating user name:	WinNT
#	Creation time:	15. 06. 2019 20:33

#	Modifying user name:	WinNT
#	Modification time:	15. 06. 2019 20:33

#	Program:	/corina/corina34_cracker 3.40 0067  02.08.2006

@<TRIPOS>MOLECULE
ASD03092781
  63   66    0    0    0
SMALL
NO_CHARGES


@<TRIPOS>ATOM
   1 C1            -0.7199     1.1914     0.1373 C.3     
   2 C2            -0.6181    -0.3334     0.0616 C.3     
   3 C3             0.4242    -0.8163     1.0370 C.2     
   4 O4             1.0267    -0.0191     1.7254 O.2     
   5 C5             0.7100    -2.2482     1.1541 C.2     
   6 C6             0.0823    -3.3364     0.3980 C.2     
   7 C7             0.6560    -4.4861     0.8363 C.2     
   8 C8             0.3344    -5.8467     0.3544 C.ar    
   9 C9             1.2516    -6.8847     0.5254 C.ar    
  10 C10            0.9502    -8.1500     0.0697 C.ar    
  11 C11           -0.2641    -8.3950    -0.5603 C.ar    
  12 N12           -0.5640    -9.6798    -1.0212 N.am    
  13 C13            0.2432   -10.8169    -0.5719 C.3     
  14 C14           -1.5845    -9.8846    -1.8714 C.2     
  15 O15           -1.8924   -11.0166    -2.1794 O.2     
  16 C16           -2.3495    -8.7208    -2.4445 C.3     
  17 C17           -2.5128    -7.6358    -1.3798 C.3     
  18 C18           -3.0267    -6.3525    -2.0354 C.3     
  19 C19           -3.5160    -8.1052    -0.3243 C.3     
  20 C20           -1.1844    -7.3655    -0.7217 C.ar    
  21 C21           -0.8896    -6.0978    -0.2679 C.ar    
  22 N22            1.5847    -4.1779     1.8015 N.pl3   
  23 C23            1.6311    -2.8457     1.9963 C.2     
  24 C24            2.5312    -2.1281     2.9689 C.3     
  25 C25            2.3745    -5.1145     2.4811 C.ar    
  26 C26            1.7896    -5.9953     3.3812 C.ar    
  27 C27            2.5708    -6.9178     4.0492 C.ar    
  28 C28            3.9342    -6.9646     3.8227 C.ar    
  29 C29            4.5196    -6.0886     2.9272 C.ar    
  30 C30            3.7429    -5.1679     2.2515 C.ar    
  31 S31            4.9274    -8.1426     4.6773 S.o2    
  32 N32            4.9739    -9.5117     3.7468 N.am    
  33 O33            6.2489    -7.6202     4.6888 O.2     
  34 O34            4.2166    -8.4847     5.8592 O.2     
  35 H35            0.2447     1.6328    -0.1134 H       
  36 H36           -1.4738     1.5407    -0.5682 H       
  37 H37           -1.0030     1.4869     1.1476 H       
  38 H38           -1.5827    -0.7748     0.3124 H       
  39 H39           -0.3349    -0.6289    -0.9487 H       
  40 H40           -0.6841    -3.2421    -0.3570 H       
  41 H41            2.1963    -6.6967     1.0139 H       
  42 H42            1.6599    -8.9532     0.2021 H       
  43 H43            0.6721   -10.5944     0.4052 H       
  44 H44           -0.3868   -11.7034    -0.4988 H       
  45 H45            1.0448   -10.9988    -1.2877 H       
  46 H46           -1.8054    -8.3136    -3.2966 H       
  47 H47           -3.3329    -9.0589    -2.7713 H       
  48 H48           -3.9897    -6.5463    -2.5078 H       
  49 H49           -3.1433    -5.5785    -1.2769 H       
  50 H50           -2.3132    -6.0184    -2.7887 H       
  51 H51           -3.1513    -9.0204     0.1420 H       
  52 H52           -3.6329    -7.3321     0.4351 H       
  53 H53           -4.4786    -8.2975    -0.7982 H       
  54 H54           -1.6035    -5.2979    -0.3979 H       
  55 H55            2.0281    -2.0392     3.9318 H       
  56 H56            3.4556    -2.6923     3.0926 H       
  57 H57            2.7608    -1.1339     2.5857 H       
  58 H58            0.7250    -5.9587     3.5590 H       
  59 H59            2.1165    -7.6031     4.7494 H       
  60 H60            5.5847    -6.1273     2.7527 H       
  61 H61            4.2000    -4.4871     1.5487 H       
  62 H62            5.7521   -10.0902     3.7737 H       
  63 H63            4.2230    -9.7351     3.1749 H       
@<TRIPOS>BOND
   1    1    2 1
   2    1   35 1
   3    1   36 1
   4    1   37 1
   5    2    3 1
   6    2   38 1
   7    2   39 1
   8    3    4 2
   9    3    5 1
  10    5   23 2
  11    5    6 1
  12    6    7 2
  13    6   40 1
  14    7    8 1
  15    7   22 1
  16    8   21 ar
  17    8    9 ar
  18    9   10 ar
  19    9   41 1
  20   10   11 ar
  21   10   42 1
  22   11   20 ar
  23   11   12 1
  24   12   13 1
  25   12   14 am
  26   13   43 1
  27   13   44 1
  28   13   45 1
  29   14   15 2
  30   14   16 1
  31   16   17 1
  32   16   46 1
  33   16   47 1
  34   17   18 1
  35   17   19 1
  36   17   20 1
  37   18   48 1
  38   18   49 1
  39   18   50 1
  40   19   51 1
  41   19   52 1
  42   19   53 1
  43   20   21 ar
  44   21   54 1
  45   22   23 1
  46   22   25 1
  47   23   24 1
  48   24   55 1
  49   24   56 1
  50   24   57 1
  51   25   30 ar
  52   25   26 ar
  53   26   27 ar
  54   26   58 1
  55   27   28 ar
  56   27   59 1
  57   28   29 ar
  58   28   31 1
  59   29   30 ar
  60   29   60 1
  61   30   61 1
  62   31   32 am
  63   31   33 2
  64   31   34 2
  65   32   62 1
  66   32   63 1

#	End of record

