#	Name: ASD04880197
#	Creating user name:	WinNT
#	Creation time:	15. 06. 2019 20:53

#	Modifying user name:	WinNT
#	Modification time:	15. 06. 2019 20:53

#	Program:	/corina/corina34_cracker 3.40 0067  02.08.2006

@<TRIPOS>MOLECULE
ASD04880197
  32   34    0    0    0
SMALL
NO_CHARGES


@<TRIPOS>ATOM
   1 C1            -0.0105     1.5405     0.0948 C.3     
   2 C2             0.0062     0.0004     0.0301 C.3     
   3 N3             1.4404    -0.3292     0.0243 N.am    
   4 N4             2.1747     0.8537     0.0781 N.2     
   5 C5             1.4529     1.9200     0.1189 C.2     
   6 C6             1.9737     3.2984     0.1798 C.ar    
   7 C7             1.9589    -1.5723    -0.0247 C.2     
   8 O8             1.2251    -2.5399     0.0353 O.2     
   9 C9             3.4195    -1.7593    -0.1512 C.ar    
  10 C10            3.9730    -3.0373    -0.0587 C.ar    
  11 C11            5.3372    -3.2064    -0.1775 C.ar    
  12 C12            6.1575    -2.1129    -0.3880 C.ar    
  13 C13            5.6157    -0.8406    -0.4812 C.ar    
  14 C14            4.2506    -0.6591    -0.3696 C.ar    
  15 F15            6.4230     0.2229    -0.6869 F       
  16 C16            1.0995     4.3868     0.2202 C.ar    
  17 N17            1.5652     5.6175     0.2745 N.ar    
  18 C18            2.8592     5.8727     0.2935 C.ar    
  19 C19            3.7903     4.8499     0.2567 C.ar    
  20 C20            3.3539     3.5383     0.2040 C.ar    
  21 H21           -0.4985     1.9549    -0.7874 H       
  22 H22           -0.5085     1.8796     1.0031 H       
  23 H23           -0.4817    -0.4257     0.9067 H       
  24 H24           -0.4717    -0.3504    -0.8846 H       
  25 H25            3.3344    -3.8926     0.1061 H       
  26 H26            5.7657    -4.1951    -0.1055 H       
  27 H27            7.2247    -2.2510    -0.4799 H       
  28 H28            3.8285     0.3324    -0.4422 H       
  29 H29            0.0329     4.2179     0.2063 H       
  30 H30            3.1977     6.8974     0.3381 H       
  31 H31            4.8469     5.0731     0.2728 H       
  32 H32            4.0589     2.7207     0.1745 H       
@<TRIPOS>BOND
   1    1    2 1
   2    1    5 1
   3    1   21 1
   4    1   22 1
   5    2    3 1
   6    2   23 1
   7    2   24 1
   8    3    4 1
   9    3    7 am
  10    4    5 2
  11    5    6 1
  12    6   16 ar
  13    6   20 ar
  14    7    8 2
  15    7    9 1
  16    9   10 ar
  17    9   14 ar
  18   10   11 ar
  19   10   25 1
  20   11   12 ar
  21   11   26 1
  22   12   13 ar
  23   12   27 1
  24   13   14 ar
  25   13   15 1
  26   14   28 1
  27   16   17 ar
  28   16   29 1
  29   17   18 ar
  30   18   19 ar
  31   18   30 1
  32   19   20 ar
  33   19   31 1
  34   20   32 1

#	End of record

