#	Name: ASD01884167
#	Creating user name:	WinNT
#	Creation time:	15. 06. 2019 19:47

#	Modifying user name:	WinNT
#	Modification time:	15. 06. 2019 19:47

#	Program:	/corina/corina34_cracker 3.40 0067  02.08.2006

@<TRIPOS>MOLECULE
ASD01884167
  37   40    0    0    0
SMALL
NO_CHARGES


@<TRIPOS>ATOM
   1 C1            -0.0236     1.4004     0.0211 C.ar    
   2 C2            -0.0111     0.0082     0.0686 C.ar    
   3 C3            -1.2014    -0.6876     0.0819 C.ar    
   4 C4            -2.4125     0.0242     0.0471 C.ar    
   5 C5            -2.3331     1.4196     0.0003 C.ar    
   6 N6            -1.1778     2.0551    -0.0061 N.ar    
   7 N7            -3.6992    -0.4791     0.0535 N.am    
   8 C8            -4.7224     0.3798     0.0158 C.2     
   9 S9            -4.0057     1.9988    -0.0333 S.3     
  10 O10           -5.9080     0.1049     0.0152 O.2     
  11 C11            1.2548     2.1524     0.0071 C.ar    
  12 C12           -3.9368    -1.9240     0.1002 C.3     
  13 C13           -4.0314    -2.3784     1.5581 C.3     
  14 C14           -4.3948    -3.8414     1.8199 C.3     
  15 C15           -2.9659    -3.3525     2.0650 C.3     
  16 F16           -1.9798    -3.7594     1.1599 F       
  17 F17           -2.5479    -3.2186     3.3933 F       
  18 C18            1.4545     3.1751    -0.9182 C.ar    
  19 C19            2.6460     3.8719    -0.9263 C.ar    
  20 C20            3.6408     3.5564    -0.0187 C.ar    
  21 C21            3.4480     2.5420     0.9021 C.ar    
  22 C22            2.2587     1.8426     0.9232 C.ar    
  23 C23            0.3719     3.5194    -1.9084 C.3     
  24 H24            0.9280    -0.5245     0.0945 H       
  25 H25           -1.2029    -1.7670     0.1183 H       
  26 H26           -4.8697    -2.1555    -0.4138 H       
  27 H27           -3.1134    -2.4437    -0.3897 H       
  28 H28           -4.4070    -1.6333     2.2594 H       
  29 H29           -5.0092    -4.0588     2.6936 H       
  30 H30           -4.5666    -4.4801     0.9535 H       
  31 H31            2.8019     4.6647    -1.6429 H       
  32 H32            4.5718     4.1037    -0.0291 H       
  33 H33            4.2283     2.2999     1.6085 H       
  34 H34            2.1091     1.0512     1.6427 H       
  35 H35           -0.3361     4.2083    -1.4477 H       
  36 H36            0.8175     3.9889    -2.7853 H       
  37 H37           -0.1488     2.6100    -2.2083 H       
@<TRIPOS>BOND
   1    1    2 ar
   2    1   11 1
   3    1    6 ar
   4    2    3 ar
   5    2   24 1
   6    3    4 ar
   7    3   25 1
   8    4    5 ar
   9    4    7 1
  10    5    6 ar
  11    5    9 1
  12    7    8 am
  13    7   12 1
  14    8    9 1
  15    8   10 2
  16   11   18 ar
  17   11   22 ar
  18   12   13 1
  19   12   26 1
  20   12   27 1
  21   13   14 1
  22   13   15 1
  23   13   28 1
  24   14   15 1
  25   14   29 1
  26   14   30 1
  27   15   16 1
  28   15   17 1
  29   18   19 ar
  30   18   23 1
  31   19   20 ar
  32   19   31 1
  33   20   21 ar
  34   20   32 1
  35   21   22 ar
  36   21   33 1
  37   22   34 1
  38   23   35 1
  39   23   36 1
  40   23   37 1

#	End of record

