#	Name: ASD01230353
#	Creating user name:	WinNT
#	Creation time:	15. 06. 2019 19:14

#	Modifying user name:	WinNT
#	Modification time:	15. 06. 2019 19:14

#	Program:	/corina/corina34_cracker 3.40 0067  02.08.2006

@<TRIPOS>MOLECULE
ASD01230353
  44   47    0    0    0
SMALL
NO_CHARGES


@<TRIPOS>ATOM
   1 S1             0.0779     1.7758     1.3201 S.o2    
   2 N2            -0.1061     0.2599     0.6828 N.am    
   3 C3             0.6412    -0.1813    -0.2998 C.2     
   4 N4             1.6389     0.5205    -0.9144 N.pl3   
   5 C5             1.9752     1.9113    -0.5992 C.3     
   6 C6             1.8022     2.1808     0.8984 C.3     
   7 C7             0.3580    -1.5576    -0.7594 C.2     
   8 C8             1.1298    -2.1021    -1.7627 C.2     
   9 C9             2.1604    -1.3329    -2.3204 C.2     
  10 C10            2.3888    -0.0783    -1.8961 C.2     
  11 C11           -0.7404    -2.3409    -0.1494 C.ar    
  12 C12           -0.4546    -3.4962     0.5792 C.ar    
  13 C13           -1.4800    -4.2231     1.1458 C.ar    
  14 C14           -2.7959    -3.8070     0.9918 C.ar    
  15 C15           -3.0841    -2.6580     0.2671 C.ar    
  16 C16           -2.0634    -1.9225    -0.2968 C.ar    
  17 O17           -3.8040    -4.5261     1.5513 O.3     
  18 C18           -4.3856    -5.4995     0.8019 C.ar    
  19 C19           -5.4922    -6.1817     1.2872 C.ar    
  20 C20           -6.0825    -7.1702     0.5243 C.ar    
  21 C21           -5.5702    -7.4810    -0.7242 C.ar    
  22 C22           -4.4660    -6.8016    -1.2095 C.ar    
  23 C23           -3.8771    -5.8080    -0.4513 C.ar    
  24 C24           -6.0494    -5.8444     2.6462 C.3     
  25 F25           -6.1484    -8.4485    -1.4691 F       
  26 O26           -0.8257     2.5864     0.5813 O.2     
  27 O27           -0.0694     1.5948     2.7218 O.2     
  28 H28            3.0102     2.1038    -0.8819 H       
  29 H29            1.3199     2.5760    -1.1620 H       
  30 H30            2.0000     3.2312     1.1121 H       
  31 H31            2.4825     1.5500     1.4705 H       
  32 H32            0.9438    -3.1064    -2.1137 H       
  33 H33            2.7782    -1.7534    -3.1001 H       
  34 H34            3.1952     0.4819    -2.3460 H       
  35 H35            0.5685    -3.8207     0.6987 H       
  36 H36           -1.2595    -5.1173     1.7098 H       
  37 H37           -4.1087    -2.3378     0.1487 H       
  38 H38           -2.2878    -1.0262    -0.8559 H       
  39 H39           -6.9438    -7.7013     0.9018 H       
  40 H40           -4.0671    -7.0456    -2.1831 H       
  41 H41           -3.0186    -5.2749    -0.8322 H       
  42 H42           -6.8028    -5.0631     2.5463 H       
  43 H43           -6.5038    -6.7335     3.0835 H       
  44 H44           -5.2446    -5.4928     3.2918 H       
@<TRIPOS>BOND
   1    1    2 am
   2    1    6 1
   3    1   26 2
   4    1   27 2
   5    2    3 2
   6    3    4 1
   7    3    7 1
   8    4    5 1
   9    4   10 1
  10    5    6 1
  11    5   28 1
  12    5   29 1
  13    6   30 1
  14    6   31 1
  15    7    8 2
  16    7   11 1
  17    8    9 1
  18    8   32 1
  19    9   10 2
  20    9   33 1
  21   10   34 1
  22   11   12 ar
  23   11   16 ar
  24   12   13 ar
  25   12   35 1
  26   13   14 ar
  27   13   36 1
  28   14   15 ar
  29   14   17 1
  30   15   16 ar
  31   15   37 1
  32   16   38 1
  33   17   18 1
  34   18   19 ar
  35   18   23 ar
  36   19   20 ar
  37   19   24 1
  38   20   21 ar
  39   20   39 1
  40   21   22 ar
  41   21   25 1
  42   22   23 ar
  43   22   40 1
  44   23   41 1
  45   24   42 1
  46   24   43 1
  47   24   44 1

#	End of record

