#	Name: ASD05143091
#	Creating user name:	WinNT
#	Creation time:	15. 06. 2019 20:57

#	Modifying user name:	WinNT
#	Modification time:	15. 06. 2019 20:57

#	Program:	/corina/corina34_cracker 3.40 0067  02.08.2006

@<TRIPOS>MOLECULE
ASD05143091
 147  150    0    0    0
SMALL
NO_CHARGES


@<TRIPOS>ATOM
   1 C1            -2.3035     4.3094    -0.8450 C.2     
   2 C2            -2.5832     2.9476    -0.2633 C.3     
   3 N3            -1.1283     4.9203    -0.5956 N.am    
   4 O4            -3.1339     4.8535    -1.5417 O.2     
   5 C5            -0.8564     6.2441    -1.1610 C.3     
   6 C6            -1.9042     7.2388    -0.6575 C.3     
   7 C7            -0.9161     6.1699    -2.6650 C.2     
   8 C8            -1.7608     7.4080     0.8563 C.3     
   9 C9            -2.8086     8.4027     1.3599 C.3     
  10 N10           -2.6713     8.5648     2.8094 N.pl3   
  11 C11           -3.5112     9.4153     3.4887 C.2     
  12 N12           -3.3823     9.5673     4.8490 N.pl3   
  13 N13           -4.4296    10.0774     2.8430 N.2     
  14 O14           -1.4991     5.2533    -3.2042 O.2     
  15 N15           -0.3216     7.1221    -3.4108 N.am    
  16 C16           -0.3796     7.0500    -4.8729 C.3     
  17 C17           -0.2196     8.4538    -5.4593 C.3     
  18 C18           -0.8077     8.4897    -6.8462 C.2     
  19 N19           -1.4279     9.6240    -7.2728 N.am    
  20 C20           -1.9785     9.6005    -8.6426 C.3     
  21 C21           -1.6253    10.9159    -9.3398 C.3     
  22 C22           -0.8853    10.6184   -10.6455 C.3     
  23 C23            0.4777    11.3134   -10.6294 C.3     
  24 C24            1.0683    11.3099   -12.0408 C.3     
  25 N25            2.5207    11.5596   -11.9512 N.am    
  26 C26            0.4194    12.3939   -12.8623 C.2     
  27 N27           -0.7959    12.1896   -13.4081 N.am    
  28 O28            0.9907    13.4501   -13.0323 O.2     
  29 C29            3.3361    10.4887   -12.1548 C.2     
  30 O30            2.8672     9.3965   -12.3960 O.2     
  31 C31            4.8290    10.6786   -12.0770 C.3     
  32 N32            5.4592     9.3651   -11.8113 N.am    
  33 C33            5.3456    11.2370   -13.4045 C.3     
  34 C34            6.0605     9.2410   -10.5910 C.2     
  35 O35            6.0617    10.1660    -9.8066 O.2     
  36 C36            6.7220     7.9341   -10.2368 C.3     
  37 N37            6.7084     7.7769    -8.7685 N.am    
  38 C38            5.9547     6.7791   -10.8834 C.3     
  39 C39            6.2337     6.5954    -8.2872 C.2     
  40 O40            5.8567     5.7289    -9.0474 O.2     
  41 C41            6.1834     6.3789    -6.7965 C.3     
  42 C42            6.8167    11.5409   -13.2831 C.2     
  43 C43            7.9202    10.5967   -13.4741 C.ar    
  44 C44            9.1010    11.3302   -13.2589 C.ar    
  45 N45            8.7284    12.6216   -12.9604 N.pl3   
  46 C46            7.3645    12.7297   -12.9852 C.2     
  47 C47            7.9917     9.2404   -13.7981 C.ar    
  48 C48            9.2103     8.6319   -13.9046 C.ar    
  49 C49           10.3787     9.3512   -13.6927 C.ar    
  50 C50           10.3311    10.6903   -13.3730 C.ar    
  51 N51            5.0256     5.5099    -6.4849 N.am    
  52 C52            6.0212     7.7247    -6.0871 C.3     
  53 C53            7.2284     8.5847    -6.3593 C.ar    
  54 C54            7.0727     9.8344    -6.9317 C.ar    
  55 C55            8.1816    10.6237    -7.1809 C.ar    
  56 C56            9.4439    10.1632    -6.8578 C.ar    
  57 C57            9.5989     8.9140    -6.2857 C.ar    
  58 C58            8.4912     8.1273    -6.0318 C.ar    
  59 C59            0.7307     6.1643    -5.3764 C.2     
  60 O60            0.5935     5.5288    -6.4002 O.2     
  61 C61            4.4854     6.8435   -10.4617 C.3     
  62 C62            3.7013     5.7401   -11.1749 C.3     
  63 N63            2.2944     5.8018   -10.7711 N.pl3   
  64 C64            1.3913     4.9023   -11.2864 C.2     
  65 N65            0.0709     4.9602   -10.9074 N.pl3   
  66 N66            1.7868     3.9946   -12.1340 N.2     
  67 N67            1.8900     6.0873    -4.6669 N.am    
  68 C68            2.9344     5.1928    -5.2041 C.3     
  69 C69            4.1400     6.0169    -5.5761 C.2     
  70 O70            4.3209     7.1081    -5.0786 O.2     
  71 C71            2.4033     4.4727    -6.4453 C.3     
  72 C72            1.3089     3.4861    -6.0333 C.3     
  73 C73            0.6830     2.8866    -7.2661 C.2     
  74 O74           -0.7292     7.5216    -7.5725 O.2     
  75 O75            1.0737     3.2161    -8.3660 O.2     
  76 N76           -0.3110     1.9843    -7.1465 N.am    
  77 Cl77           5.4868    10.4120    -7.3377 Cl      
  78 H78           -1.7261     2.6210     0.3255 H       
  79 H79           -3.4646     2.9996     0.3759 H       
  80 H80           -2.7613     2.2373    -1.0707 H       
  81 H81           -0.4625     4.4834    -0.0416 H       
  82 H82            0.1357     6.5742    -0.8526 H       
  83 H83           -1.7557     8.2016    -1.1464 H       
  84 H84           -2.9014     6.8641    -0.8883 H       
  85 H85           -1.9093     6.4452     1.3453 H       
  86 H86           -0.7636     7.7828     1.0872 H       
  87 H87           -2.6601     9.3655     0.8710 H       
  88 H88           -3.8058     8.0280     1.1290 H       
  89 H89           -1.9877     8.0720     3.2899 H       
  90 H90           -2.6988     9.0746     5.3295 H       
  91 H91           -3.9749    10.1674     5.3282 H       
  92 H92           -5.0222    10.6775     3.3222 H       
  93 H93            0.1447     7.8552    -2.9796 H       
  94 H94           -1.3407     6.6362    -5.1782 H       
  95 H95           -0.7385     9.1733    -4.8259 H       
  96 H96            0.8390     8.7090    -5.5069 H       
  97 H97           -1.5039    10.4076    -6.7061 H       
  98 H98           -1.5463     8.7665    -9.1956 H       
  99 H99           -3.0619     9.4898    -8.5988 H       
 100 H100          -2.5393    11.4683    -9.5580 H       
 101 H101          -0.9869    11.5126    -8.6882 H       
 102 H102          -0.7432     9.5423   -10.7455 H       
 103 H103          -1.4712    10.9872   -11.4874 H       
 104 H104           0.3572    12.3417   -10.2885 H       
 105 H105           1.1482    10.7827    -9.9536 H       
 106 H106           0.8926    10.3408   -12.5077 H       
 107 H107           2.8757    12.4414   -11.7576 H       
 108 H108          -1.2528    11.3449   -13.2721 H       
 109 H109          -1.2135    12.8874   -13.9368 H       
 110 H110           5.0683    11.3695   -11.2686 H       
 111 H111           5.4456     8.6429   -12.4587 H       
 112 H112           5.1905    10.5009   -14.1932 H       
 113 H113           4.8047    12.1512   -13.6492 H       
 114 H114           7.7517     7.9370   -10.5944 H       
 115 H115           7.0219     8.4793    -8.1775 H       
 116 H116           6.0252     6.8583   -11.9682 H       
 117 H117           6.3844     5.8311   -10.5596 H       
 118 H118           7.1029     5.8962    -6.4656 H       
 119 H119           9.3414    13.3475   -12.7654 H       
 120 H120           6.8107    13.6353   -12.7867 H       
 121 H121           7.0870     8.6743   -13.9636 H       
 122 H122           9.2652     7.5828   -14.1552 H       
 123 H123          11.3345     8.8562   -13.7802 H       
 124 H124          11.2456    11.2413   -13.2104 H       
 125 H125           4.9041     4.6405    -6.8977 H       
 126 H126           5.1271     8.2257    -6.4582 H       
 127 H127           5.9267     7.5605    -5.0137 H       
 128 H128           8.0607    11.5993    -7.6281 H       
 129 H129          10.3094    10.7790    -7.0526 H       
 130 H130          10.5856     8.5544    -6.0338 H       
 131 H131           8.6128     7.1518    -5.5846 H       
 132 H132           4.4104     6.7036    -9.3833 H       
 133 H133           4.0722     7.8154   -10.7316 H       
 134 H134           3.7763     5.8800   -12.2533 H       
 135 H135           4.1145     4.7683   -10.9050 H       
 136 H136           2.0000     6.4773   -10.1403 H       
 137 H137          -0.2234     5.6357   -10.2766 H       
 138 H138          -0.5662     4.3256   -11.2709 H       
 139 H139           1.1496     3.3600   -12.4975 H       
 140 H140           2.0231     6.5943    -3.8507 H       
 141 H141           3.2127     4.4603    -4.4464 H       
 142 H142           1.9905     5.2037    -7.1406 H       
 143 H143           3.2174     3.9318    -6.9277 H       
 144 H144           1.7446     2.6935    -5.4249 H       
 145 H145           0.5463     4.0094    -5.4564 H       
 146 H146          -0.6235     1.7208    -6.2668 H       
 147 H147          -0.7139     1.5985    -7.9400 H       
@<TRIPOS>BOND
   1    1    2 1
   2    1    3 am
   3    1    4 2
   4    2   78 1
   5    2   79 1
   6    2   80 1
   7    3    5 1
   8    3   81 1
   9    5    6 1
  10    5    7 1
  11    5   82 1
  12    6    8 1
  13    6   83 1
  14    6   84 1
  15    7   14 2
  16    7   15 am
  17    8    9 1
  18    8   85 1
  19    8   86 1
  20    9   10 1
  21    9   87 1
  22    9   88 1
  23   10   11 1
  24   10   89 1
  25   11   12 1
  26   11   13 2
  27   12   90 1
  28   12   91 1
  29   13   92 1
  30   15   16 1
  31   15   93 1
  32   16   17 1
  33   16   59 1
  34   16   94 1
  35   17   18 1
  36   17   95 1
  37   17   96 1
  38   18   19 am
  39   18   74 2
  40   19   20 1
  41   19   97 1
  42   20   21 1
  43   20   98 1
  44   20   99 1
  45   21   22 1
  46   21  100 1
  47   21  101 1
  48   22   23 1
  49   22  102 1
  50   22  103 1
  51   23   24 1
  52   23  104 1
  53   23  105 1
  54   24   25 1
  55   24   26 1
  56   24  106 1
  57   25   29 am
  58   25  107 1
  59   26   27 am
  60   26   28 2
  61   27  108 1
  62   27  109 1
  63   29   30 2
  64   29   31 1
  65   31   32 1
  66   31   33 1
  67   31  110 1
  68   32   34 am
  69   32  111 1
  70   33   42 1
  71   33  112 1
  72   33  113 1
  73   34   35 2
  74   34   36 1
  75   36   37 1
  76   36   38 1
  77   36  114 1
  78   37   39 am
  79   37  115 1
  80   38   61 1
  81   38  116 1
  82   38  117 1
  83   39   40 2
  84   39   41 1
  85   41   51 1
  86   41   52 1
  87   41  118 1
  88   42   43 1
  89   42   46 2
  90   43   44 ar
  91   43   47 ar
  92   44   45 1
  93   44   50 ar
  94   45   46 1
  95   45  119 1
  96   46  120 1
  97   47   48 ar
  98   47  121 1
  99   48   49 ar
 100   48  122 1
 101   49   50 ar
 102   49  123 1
 103   50  124 1
 104   51   69 am
 105   51  125 1
 106   52   53 1
 107   52  126 1
 108   52  127 1
 109   53   54 ar
 110   53   58 ar
 111   54   55 ar
 112   54   77 1
 113   55   56 ar
 114   55  128 1
 115   56   57 ar
 116   56  129 1
 117   57   58 ar
 118   57  130 1
 119   58  131 1
 120   59   60 2
 121   59   67 am
 122   61   62 1
 123   61  132 1
 124   61  133 1
 125   62   63 1
 126   62  134 1
 127   62  135 1
 128   63   64 1
 129   63  136 1
 130   64   65 1
 131   64   66 2
 132   65  137 1
 133   65  138 1
 134   66  139 1
 135   67   68 1
 136   67  140 1
 137   68   69 1
 138   68   71 1
 139   68  141 1
 140   69   70 2
 141   71   72 1
 142   71  142 1
 143   71  143 1
 144   72   73 1
 145   72  144 1
 146   72  145 1
 147   73   75 2
 148   73   76 am
 149   76  146 1
 150   76  147 1

#	End of record

