#	Name: ASD01190173
#	Creating user name:	WinNT
#	Creation time:	15. 06. 2019 19:07

#	Modifying user name:	WinNT
#	Modification time:	15. 06. 2019 19:07

#	Program:	/corina/corina34_cracker 3.40 0067  02.08.2006

@<TRIPOS>MOLECULE
ASD01190173
  45   49    0    0    0
SMALL
NO_CHARGES


@<TRIPOS>ATOM
   1 C1            -0.0187     1.5258     0.0104 C.3     
   2 C2            -0.9584     2.6616     0.4198 C.3     
   3 N3             5.2689     3.4279     0.1943 N.pl3   
   4 N4             5.3946     3.5821     1.5788 N.2     
   5 C5             4.2872     3.2341     2.1704 C.2     
   6 C6             3.3423     2.8158     1.1396 C.ar    
   7 C7             2.0241     2.3469     1.1611 C.ar    
   8 C8             1.4008     2.0314    -0.0114 C.ar    
   9 C9             2.0628     2.1715    -1.2250 C.ar    
  10 C10            3.3500     2.6274    -1.2714 C.ar    
  11 C11            4.0113     2.9571    -0.0916 C.ar    
  12 C12            6.3921     2.9385    -1.8944 C.ar    
  13 C13            6.2636     3.7136    -0.7490 C.ar    
  14 C14            7.1384     4.7792    -0.5527 C.ar    
  15 C15            8.1056     5.0223    -1.5144 C.ar    
  16 C16            8.1704     4.2062    -2.6282 C.ar    
  17 N17            7.3270     3.2043    -2.7843 N.ar    
  18 N18           -0.7710    -0.8294     2.7388 N.pl3   
  19 C19           -0.9391     0.3552     2.0750 C.2     
  20 C20           -0.1344     0.3962     1.0013 C.2     
  21 C21            0.6099    -0.8652     0.9755 C.ar    
  22 C22            1.5763    -1.4047     0.1242 C.ar    
  23 C23            2.0903    -2.6443     0.3808 C.ar    
  24 C24            1.6594    -3.3725     1.4815 C.ar    
  25 C25            0.7066    -2.8596     2.3339 C.ar    
  26 C26            0.1699    -1.5990     2.0921 C.ar    
  27 F27           -0.8510     3.7102    -0.5000 F       
  28 F28           -2.2762     2.1923     0.4401 F       
  29 F29           -0.6074     3.1210     1.6938 F       
  30 O30           -0.3772     1.0565    -1.2908 O.3     
  31 H31            4.1015     3.2519     3.2342 H       
  32 H32            1.5031     2.2342     2.1004 H       
  33 H33            1.5538     1.9166    -2.1428 H       
  34 H34            3.8533     2.7314    -2.2212 H       
  35 H35            5.7221     2.1068    -2.0550 H       
  36 H36            7.0644     5.4009     0.3273 H       
  37 H37            8.8006     5.8403    -1.3954 H       
  38 H38            8.9225     4.3914    -3.3809 H       
  39 H39           -1.2415    -1.0869     3.5470 H       
  40 H40           -1.6188     1.1406     2.3707 H       
  41 H41            1.9161    -0.8441    -0.7341 H       
  42 H42            2.8375    -3.0612    -0.2781 H       
  43 H43            2.0751    -4.3510     1.6711 H       
  44 H44            0.3776    -3.4339     3.1873 H       
  45 H45            0.1779     0.3343    -1.6153 H       
@<TRIPOS>BOND
   1    1    2 1
   2    1    8 1
   3    1   20 1
   4    1   30 1
   5    2   27 1
   6    2   28 1
   7    2   29 1
   8    3    4 1
   9    3   11 1
  10    3   13 1
  11    4    5 2
  12    5    6 1
  13    5   31 1
  14    6    7 ar
  15    6   11 ar
  16    7    8 ar
  17    7   32 1
  18    8    9 ar
  19    9   10 ar
  20    9   33 1
  21   10   11 ar
  22   10   34 1
  23   12   13 ar
  24   12   17 ar
  25   12   35 1
  26   13   14 ar
  27   14   15 ar
  28   14   36 1
  29   15   16 ar
  30   15   37 1
  31   16   17 ar
  32   16   38 1
  33   18   19 1
  34   18   26 1
  35   18   39 1
  36   19   20 2
  37   19   40 1
  38   20   21 1
  39   21   22 ar
  40   21   26 ar
  41   22   23 ar
  42   22   41 1
  43   23   24 ar
  44   23   42 1
  45   24   25 ar
  46   24   43 1
  47   25   26 ar
  48   25   44 1
  49   30   45 1

#	End of record

