#	Name: ASD02038523
#	Creating user name:	WinNT
#	Creation time:	15. 06. 2019 20:16

#	Modifying user name:	WinNT
#	Modification time:	15. 06. 2019 20:16

#	Program:	/corina/corina34_cracker 3.40 0067  02.08.2006

@<TRIPOS>MOLECULE
ASD02038523
  51   54    0    0    0
SMALL
NO_CHARGES


@<TRIPOS>ATOM
   1 F1             7.2007     3.8885     0.2675 F       
   2 C2             0.6609    -0.0190     1.3142 C.3     
   3 N3             0.0020    -0.0042     0.0007 N.3     
   4 C4            -1.3592    -0.5495     0.0884 C.3     
   5 C5            -1.2915    -2.0737     0.2029 C.3     
   6 C6            -2.6997    -2.6320     0.4179 C.3     
   7 O7            -2.6245    -4.0414     0.6410 O.3     
   8 C8            -3.7974    -4.6968     0.8511 C.ar    
   9 C9            -3.7934    -6.0596     1.0728 C.ar    
  10 C10           -4.9968    -3.9899     0.8475 C.ar    
  11 C11           -6.1935    -4.6377     1.0595 C.ar    
  12 C12           -6.2113    -6.0107     1.2794 C.ar    
  13 C13           -0.0095     1.3524    -0.5642 C.3     
  14 C14            1.4293     1.8526    -0.7125 C.3     
  15 N15            2.0882     1.8378     0.6010 N.3     
  16 C16            3.3838     2.3568     0.5175 C.ar    
  17 C17            4.1777     2.4306     1.6546 C.ar    
  18 C18            5.4588     2.9444     1.5695 C.ar    
  19 C19            5.9494     3.3858     0.3495 C.ar    
  20 C20            5.1585     3.3125    -0.7836 C.ar    
  21 C21            3.8802     2.7939    -0.7034 C.ar    
  22 C22           -5.0009    -6.7270     1.2884 C.ar    
  23 O23           -0.7418    -2.6178    -0.9987 O.3     
  24 C24            2.0998     0.4812     1.1659 C.3     
  25 N25           -7.2219    -6.9187     1.5163 N.pl3   
  26 C26           -6.6944    -8.1718     1.6678 C.2     
  27 C27           -5.3587    -8.1247     1.5422 C.2     
  28 F28            6.2323     3.0168     2.6747 F       
  29 H29            0.1187     0.6315     2.0004 H       
  30 H30            0.6681    -1.0362     1.7060 H       
  31 H31           -1.8584    -0.1409     0.9670 H       
  32 H32           -1.9182    -0.2769    -0.8068 H       
  33 H33           -0.6595    -2.3469     1.0479 H       
  34 H34           -3.1530    -2.1507     1.2846 H       
  35 H35           -3.3072    -2.4359    -0.4656 H       
  36 H36           -2.8620    -6.6063     1.0791 H       
  37 H37           -4.9887    -2.9234     0.6772 H       
  38 H38           -7.1180    -4.0794     1.0553 H       
  39 H39           -0.4911     1.3352    -1.5419 H       
  40 H40           -0.5593     2.0186     0.1007 H       
  41 H41            1.9716     1.2021    -1.3987 H       
  42 H42            1.4222     2.8698    -1.1043 H       
  43 H43            3.7950     2.0873     2.6044 H       
  44 H44            5.5424     3.6567    -1.7326 H       
  45 H45            3.2639     2.7372    -1.5884 H       
  46 H46           -1.2540    -2.4138    -1.7931 H       
  47 H47            2.5814     0.4984     2.1436 H       
  48 H48            2.6496    -0.1849     0.5010 H       
  49 H49           -8.1658    -6.7012     1.5681 H       
  50 H50           -7.2676    -9.0662     1.8626 H       
  51 H51           -4.6771    -8.9593     1.6138 H       
@<TRIPOS>BOND
   1    1   19 1
   2    2    3 1
   3    2   24 1
   4    2   29 1
   5    2   30 1
   6    3    4 1
   7    3   13 1
   8    4    5 1
   9    4   31 1
  10    4   32 1
  11    5    6 1
  12    5   23 1
  13    5   33 1
  14    6    7 1
  15    6   34 1
  16    6   35 1
  17    7    8 1
  18    8    9 ar
  19    8   10 ar
  20    9   22 ar
  21    9   36 1
  22   10   11 ar
  23   10   37 1
  24   11   12 ar
  25   11   38 1
  26   12   22 ar
  27   12   25 1
  28   13   14 1
  29   13   39 1
  30   13   40 1
  31   14   15 1
  32   14   41 1
  33   14   42 1
  34   15   16 1
  35   15   24 1
  36   16   17 ar
  37   16   21 ar
  38   17   18 ar
  39   17   43 1
  40   18   19 ar
  41   18   28 1
  42   19   20 ar
  43   20   21 ar
  44   20   44 1
  45   21   45 1
  46   22   27 1
  47   23   46 1
  48   24   47 1
  49   24   48 1
  50   25   26 1
  51   25   49 1
  52   26   27 2
  53   26   50 1
  54   27   51 1

#	End of record

