#	Name: ASD08170309
#	Creating user name:	WinNT
#	Creation time:	15. 06. 2019 21:17

#	Modifying user name:	WinNT
#	Modification time:	15. 06. 2019 21:17

#	Program:	/corina/corina34_cracker 3.40 0067  02.08.2006

@<TRIPOS>MOLECULE
ASD08170309
  59   64    0    0    0
SMALL
NO_CHARGES


@<TRIPOS>ATOM
   1 C1            -0.0162     1.3436     0.0094 C.2     
   2 N2             0.0021    -0.0041     0.0020 N.am    
   3 C3             1.2158    -0.6830    -0.0132 C.2     
   4 S4             1.4076    -2.3853    -0.0242 S.3     
   5 C5             3.1580    -2.1679    -0.0404 C.2     
   6 C6             4.1900    -3.2660    -0.0570 C.3     
   7 C7             7.1356    -6.3838     3.2786 C.3     
   8 C8             7.3823    -6.6392     4.7431 C.2     
   9 S9             8.5907    -5.8400     5.7495 S.3     
  10 C10            8.0678    -6.7751     7.0862 C.2     
  11 N11            2.3916    -0.1314    -0.0272 N.2     
  12 N12            3.3971    -0.8949    -0.0360 N.2     
  13 N13            6.7415    -7.4810     5.4904 N.2     
  14 N14            7.1020    -7.5523     6.6983 N.2     
  15 O15            1.0258     1.9642     0.0028 O.2     
  16 C16           -1.3314     2.0792     0.0197 C.3     
  17 C17            4.5536    -3.6458     1.3798 C.3     
  18 C18            6.0928    -5.2751     3.1228 C.3     
  19 N19            8.5909    -6.7128     8.3733 N.am    
  20 C20            8.0910    -7.5042     9.3429 C.2     
  21 O21            7.1849    -8.2707     9.0931 O.2     
  22 O22           -1.2062     3.3488    -0.6481 O.3     
  23 O23           -2.3112     1.3749    -0.7658 O.3     
  24 C24           -3.0862     2.3434    -1.3357 C.ar    
  25 C25           -2.4068     3.5569    -1.2633 C.ar    
  26 S26            5.7958    -4.9677     1.3599 S.3     
  27 C27            8.6578    -7.4367    10.7376 C.3     
  28 O28            8.5426    -8.7136    11.3930 O.3     
  29 C29            9.6488    -8.8174    12.1859 C.ar    
  30 C30           10.5926    -7.8873    11.7572 C.ar    
  31 O31           10.0776    -7.2007    10.6958 O.3     
  32 C32            9.9352    -9.6450    13.2595 C.ar    
  33 C33           11.1546    -9.5463    13.9030 C.ar    
  34 C34           12.0915    -8.6230    13.4775 C.ar    
  35 C35           11.8127    -7.7941    12.4070 C.ar    
  36 C36           -4.3403     2.2896    -1.9221 C.ar    
  37 C37           -4.9146     3.4382    -2.4337 C.ar    
  38 C38           -4.2403     4.6430    -2.3615 C.ar    
  39 C39           -2.9882     4.7040    -1.7787 C.ar    
  40 H40           -0.8313    -0.5005     0.0073 H       
  41 H41            3.7851    -4.1373    -0.5717 H       
  42 H42            5.0822    -2.9183    -0.5777 H       
  43 H43            8.0663    -6.0769     2.8014 H       
  44 H44            6.7692    -7.2959     2.8074 H       
  45 H45           -1.6839     2.2172     1.0418 H       
  46 H46            4.9585    -2.7745     1.8946 H       
  47 H47            3.6614    -3.9935     1.9006 H       
  48 H48            5.1621    -5.5820     3.6000 H       
  49 H49            6.4592    -4.3630     3.5940 H       
  50 H50            9.3156    -6.0998     8.5731 H       
  51 H51            8.1554    -6.6621    11.3170 H       
  52 H52            9.2052   -10.3671    13.5941 H       
  53 H53           11.3758   -10.1918    14.7402 H       
  54 H54           13.0431    -8.5489    13.9828 H       
  55 H55           12.5464    -7.0737    12.0767 H       
  56 H56           -4.8693     1.3498    -1.9798 H       
  57 H57           -5.8922     3.3944    -2.8905 H       
  58 H58           -4.6922     5.5383    -2.7623 H       
  59 H59           -2.4640     5.6466    -1.7233 H       
@<TRIPOS>BOND
   1    1    2 am
   2    1   15 2
   3    1   16 1
   4    2    3 1
   5    2   40 1
   6    3    4 1
   7    3   11 2
   8    4    5 1
   9    5    6 1
  10    5   12 2
  11    6   17 1
  12    6   41 1
  13    6   42 1
  14    7    8 1
  15    7   18 1
  16    7   43 1
  17    7   44 1
  18    8    9 1
  19    8   13 2
  20    9   10 1
  21   10   19 1
  22   10   14 2
  23   11   12 1
  24   13   14 1
  25   16   22 1
  26   16   23 1
  27   16   45 1
  28   17   26 1
  29   17   46 1
  30   17   47 1
  31   18   26 1
  32   18   48 1
  33   18   49 1
  34   19   20 am
  35   19   50 1
  36   20   21 2
  37   20   27 1
  38   22   25 1
  39   23   24 1
  40   24   25 ar
  41   24   36 ar
  42   25   39 ar
  43   27   28 1
  44   27   31 1
  45   27   51 1
  46   28   29 1
  47   29   30 ar
  48   29   32 ar
  49   30   31 1
  50   30   35 ar
  51   32   33 ar
  52   32   52 1
  53   33   34 ar
  54   33   53 1
  55   34   35 ar
  56   34   54 1
  57   35   55 1
  58   36   37 ar
  59   36   56 1
  60   37   38 ar
  61   37   57 1
  62   38   39 ar
  63   38   58 1
  64   39   59 1

#	End of record

