#	Name: ASD09116373
#	Creating user name:	WinNT
#	Creation time:	15. 06. 2019 21:21

#	Modifying user name:	WinNT
#	Modification time:	15. 06. 2019 21:21

#	Program:	/corina/corina34_cracker 3.40 0067  02.08.2006

@<TRIPOS>MOLECULE
ASD09116373
  59   65    0    0    0
SMALL
NO_CHARGES


@<TRIPOS>ATOM
   1 N1            -0.0118     1.3956    -0.0417 N.2     
   2 N2            -0.0123     0.0083     0.1757 N.pl3   
   3 C3             1.2213     1.8091     0.1272 C.2     
   4 N4             1.9939     0.7616     0.4379 N.2     
   5 C5             1.2641    -0.3328     0.4711 C.2     
   6 N6             1.7201    -1.6057     0.7566 N.pl3   
   7 C7            -1.1114    -0.8493     0.1019 C.ar    
   8 N8             1.6572     3.1283     0.0030 N.pl3   
   9 C9             3.0191     3.4258     0.0971 C.ar    
  10 C10            3.9737     2.5006    -0.3226 C.ar    
  11 C11            3.4380     4.6501     0.6049 C.ar    
  12 N12            4.7194     4.9388     0.6965 N.ar    
  13 C13            5.6563     4.0813     0.3118 C.ar    
  14 C14            5.3103     2.8367    -0.2119 C.ar    
  15 N15           -0.9317    -2.1351    -0.1613 N.ar    
  16 N16           -1.9097    -2.9646    -0.2501 N.ar    
  17 C17           -3.1644    -2.5782    -0.0833 C.ar    
  18 C18           -3.4489    -1.2435     0.2191 C.ar    
  19 C19           -2.4004    -0.3527     0.3112 C.ar    
  20 C20           -4.2968    -3.5205    -0.2385 C.ar    
  21 C21           -5.3736    -3.1537    -1.0472 C.ar    
  22 C22           -5.3315    -1.8416    -1.7815 C.3     
  23 C23           -5.6282    -0.6713    -0.8478 C.3     
  24 C24           -4.8681    -0.8223     0.4671 C.3     
  25 C25           -4.3005    -4.7510     0.4091 C.ar    
  26 C26           -5.3822    -5.5976     0.2623 C.ar    
  27 C27           -6.4566    -5.2215    -0.5234 C.ar    
  28 C28           -6.4530    -4.0011    -1.1765 C.ar    
  29 C29            7.0862     4.4532     0.4352 C.ar    
  30 C30            8.0737     3.6044    -0.0613 C.ar    
  31 C31            7.4452     5.6557     1.0431 C.ar    
  32 C32            8.7794     6.0001     1.1562 C.ar    
  33 C33            9.7636     5.1446     0.6622 C.ar    
  34 C34            9.4044     3.9515     0.0539 C.ar    
  35 O35            9.3868     7.0966     1.6973 O.3     
  36 C36           10.7608     6.7156     1.8968 C.3     
  37 O37           10.9856     5.7069     0.8944 O.3     
  38 H38            2.6580    -1.7514     0.9565 H       
  39 H39            1.1022    -2.3535     0.7572 H       
  40 H40            1.0148     3.8392    -0.1486 H       
  41 H41            3.6762     1.5433    -0.7245 H       
  42 H42            2.7037     5.3733     0.9277 H       
  43 H43            6.0765     2.1422    -0.5233 H       
  44 H44           -2.5700     0.6916     0.5285 H       
  45 H45           -4.3411    -1.7083    -2.2168 H       
  46 H46           -6.0722    -1.8566    -2.5811 H       
  47 H47           -5.3280     0.2584    -1.3312 H       
  48 H48           -6.6981    -0.6387    -0.6421 H       
  49 H49           -5.3626    -1.5736     1.0828 H       
  50 H50           -4.8719     0.1315     0.9949 H       
  51 H51           -3.4618    -5.0435     1.0234 H       
  52 H52           -5.3889    -6.5551     0.7618 H       
  53 H53           -7.3032    -5.8839    -0.6279 H       
  54 H54           -7.2956    -3.7131    -1.7876 H       
  55 H55            7.7975     2.6744    -0.5360 H       
  56 H56            6.6818     6.3175     1.4248 H       
  57 H57           10.1683     3.2902    -0.3276 H       
  58 H58           11.4215     7.5678     1.7375 H       
  59 H59           10.9022     6.3016     2.8952 H       
@<TRIPOS>BOND
   1    1    2 1
   2    1    3 2
   3    2    7 1
   4    2    5 1
   5    3    4 1
   6    3    8 1
   7    4    5 2
   8    5    6 1
   9    6   38 1
  10    6   39 1
  11    7   15 ar
  12    7   19 ar
  13    8    9 1
  14    8   40 1
  15    9   10 ar
  16    9   11 ar
  17   10   14 ar
  18   10   41 1
  19   11   12 ar
  20   11   42 1
  21   12   13 ar
  22   13   14 ar
  23   13   29 1
  24   14   43 1
  25   15   16 ar
  26   16   17 ar
  27   17   18 ar
  28   17   20 1
  29   18   19 ar
  30   18   24 1
  31   19   44 1
  32   20   21 ar
  33   20   25 ar
  34   21   22 1
  35   21   28 ar
  36   22   23 1
  37   22   45 1
  38   22   46 1
  39   23   24 1
  40   23   47 1
  41   23   48 1
  42   24   49 1
  43   24   50 1
  44   25   26 ar
  45   25   51 1
  46   26   27 ar
  47   26   52 1
  48   27   28 ar
  49   27   53 1
  50   28   54 1
  51   29   30 ar
  52   29   31 ar
  53   30   34 ar
  54   30   55 1
  55   31   32 ar
  56   31   56 1
  57   32   33 ar
  58   32   35 1
  59   33   34 ar
  60   33   37 1
  61   34   57 1
  62   35   36 1
  63   36   37 1
  64   36   58 1
  65   36   59 1

#	End of record

