#	Name: ASD08070643
#	Creating user name:	WinNT
#	Creation time:	15. 06. 2019 21:15

#	Modifying user name:	WinNT
#	Modification time:	15. 06. 2019 21:15

#	Program:	/corina/corina34_cracker 3.40 0067  02.08.2006

@<TRIPOS>MOLECULE
ASD08070643
  47   47    0    0    0
SMALL
NO_CHARGES


@<TRIPOS>ATOM
   1 C1            -0.0179     1.4718     0.0101 C.2     
   2 C2             0.0021    -0.0041     0.0020 C.ar    
   3 C3             1.2206    -0.6881    -0.0133 C.ar    
   4 C4             1.2351    -2.0649    -0.0209 C.ar    
   5 C5             0.0396    -2.7744    -0.0138 C.ar    
   6 C6            -1.1742    -2.0979     0.0014 C.ar    
   7 C7            -1.1971    -0.7209     0.0154 C.ar    
   8 O8             1.0266     2.0940     0.0035 O.2     
   9 N9            -1.1942     2.1298     0.0193 N.am    
  10 C10            2.5485    -2.8035    -0.0374 C.3     
  11 C11            0.3746     4.2504    -3.4182 C.3     
  12 C12            0.2626     3.7309    -1.9835 C.3     
  13 C13           -1.1021     4.1141    -1.4074 C.3     
  14 C14           -1.2140     3.5946     0.0273 C.3     
  15 C15           -2.5253     4.0835     0.6459 C.3     
  16 C16           -2.5802     3.6698     2.1179 C.3     
  17 C17           -3.8915     4.1587     2.7364 C.3     
  18 O18            0.0580    -4.1314    -0.0222 O.3     
  19 C19           -1.2062    -4.7974    -0.0142 C.3     
  20 C20           -0.9852    -6.3113    -0.0255 C.3     
  21 H21            2.1498    -0.1376    -0.0195 H       
  22 H22           -2.1008    -2.6527     0.0069 H       
  23 H23           -2.1407    -0.1959     0.0317 H       
  24 H24           -2.0275     1.6334     0.0205 H       
  25 H25            2.8750    -2.9872     0.9862 H       
  26 H26            2.4240    -3.7546    -0.5552 H       
  27 H27            3.2965    -2.2031    -0.5551 H       
  28 H28           -0.4140     3.8084    -4.0273 H       
  29 H29            0.2707     5.3354    -3.4209 H       
  30 H30            1.3468     3.9775    -3.8286 H       
  31 H31            0.3665     2.6459    -1.9808 H       
  32 H32            1.0511     4.1730    -1.3744 H       
  33 H33           -1.2059     5.1991    -1.4101 H       
  34 H34           -1.8906     3.6720    -2.0164 H       
  35 H35           -0.3744     3.9661     0.6148 H       
  36 H36           -2.5794     5.1696     0.5714 H       
  37 H37           -3.3661     3.6403     0.1123 H       
  38 H38           -2.5261     2.5837     2.1923 H       
  39 H39           -1.7394     4.1130     2.6514 H       
  40 H40           -3.9456     5.2448     2.6619 H       
  41 H41           -4.7323     3.7155     2.2028 H       
  42 H42           -3.9306     3.8640     3.7851 H       
  43 H43           -1.7587    -4.5175     0.8828 H       
  44 H44           -1.7756    -4.5067    -0.8970 H       
  45 H45           -0.4328    -6.5912    -0.9225 H       
  46 H46           -0.4159    -6.6020     0.8574 H       
  47 H47           -1.9496    -6.8193    -0.0193 H       
@<TRIPOS>BOND
   1    1    2 1
   2    1    8 2
   3    1    9 am
   4    2    3 ar
   5    2    7 ar
   6    3    4 ar
   7    3   21 1
   8    4    5 ar
   9    4   10 1
  10    5    6 ar
  11    5   18 1
  12    6    7 ar
  13    6   22 1
  14    7   23 1
  15    9   14 1
  16    9   24 1
  17   10   25 1
  18   10   26 1
  19   10   27 1
  20   11   12 1
  21   11   28 1
  22   11   29 1
  23   11   30 1
  24   12   13 1
  25   12   31 1
  26   12   32 1
  27   13   14 1
  28   13   33 1
  29   13   34 1
  30   14   15 1
  31   14   35 1
  32   15   16 1
  33   15   36 1
  34   15   37 1
  35   16   17 1
  36   16   38 1
  37   16   39 1
  38   17   40 1
  39   17   41 1
  40   17   42 1
  41   18   19 1
  42   19   20 1
  43   19   43 1
  44   19   44 1
  45   20   45 1
  46   20   46 1
  47   20   47 1

#	End of record

