#	Name: ASD03090904
#	Creating user name:	WinNT
#	Creation time:	15. 06. 2019 20:29

#	Modifying user name:	WinNT
#	Modification time:	15. 06. 2019 20:29

#	Program:	/corina/corina34_cracker 3.40 0067  02.08.2006

@<TRIPOS>MOLECULE
ASD03090904
  46   49    0    0    0
SMALL
NO_CHARGES


@<TRIPOS>ATOM
   1 N1            -0.0175     1.3432    -0.0860 N.am    
   2 C2             0.0012    -0.0044    -0.0679 C.2     
   3 O3             1.0649    -0.5993    -0.0775 O.2     
   4 N4            -1.1464    -0.6880    -0.0394 N.2     
   5 C5             1.2409     2.0928    -0.1173 C.3     
   6 C6             1.6486     2.3304    -1.5485 C.2     
   7 C7             1.2988     3.3879    -2.2823 C.2     
   8 C8             1.7942     3.3907    -3.5748 C.2     
   9 C9             2.5463     2.3353    -3.8907 C.2     
  10 S10            2.6648     1.2593    -2.5044 S.3     
  11 S11            0.2595    -3.0387    -0.0302 S.3     
  12 C12           -1.1280    -2.0187    -0.0215 C.2     
  13 N13           -2.1987    -2.8518     0.0077 N.pl3   
  14 C14           -1.9391    -4.1884     0.0221 C.2     
  15 C15           -0.6633    -4.5510     0.0062 C.2     
  16 O16           -7.3741    -0.8848     0.0781 O.3     
  17 C17           -8.4123    -1.7492    -0.3960 C.3     
  18 C18           -8.2087    -3.1342     0.2329 C.3     
  19 O19           -6.9212    -3.6205    -0.1616 O.3     
  20 C20           -5.8806    -2.7488    -0.0610 C.ar    
  21 C21           -6.1064    -1.3819     0.0568 C.ar    
  22 C22           -4.5831    -3.2357    -0.0763 C.ar    
  23 C23           -3.5113    -2.3592     0.0230 C.ar    
  24 C24           -3.7397    -0.9950     0.1377 C.ar    
  25 C25           -5.0330    -0.5092     0.1545 C.ar    
  26 F26           -8.2679    -3.0328     1.6270 F       
  27 F27           -9.2025    -4.0087    -0.2198 F       
  28 F28           -9.6595    -1.2390    -0.0199 F       
  29 F29           -8.3434    -1.8491    -1.7897 F       
  30 C30           -0.1141    -5.9542     0.0171 C.3     
  31 C31           -1.2961     2.0582    -0.0806 C.3     
  32 H32            1.1060     3.0502     0.3858 H       
  33 H33            2.0170     1.5211     0.3915 H       
  34 H34            0.6759     4.1818    -1.8972 H       
  35 H35            1.5871     4.1868    -4.2746 H       
  36 H36            3.0139     2.1688    -4.8499 H       
  37 H37           -2.7344    -4.9188     0.0454 H       
  38 H38           -4.4058    -4.2972    -0.1662 H       
  39 H39           -2.9060    -0.3127     0.2139 H       
  40 H40           -5.2085     0.5527     0.2435 H       
  41 H41            0.9752    -5.9182    -0.0005 H       
  42 H42           -0.4460    -6.4673     0.9197 H       
  43 H43           -0.4741    -6.4922    -0.8598 H       
  44 H44           -1.6010     2.2495     0.9483 H       
  45 H45           -1.1850     3.0052    -0.6087 H       
  46 H46           -2.0536     1.4519    -0.5772 H       
@<TRIPOS>BOND
   1    1    2 am
   2    1    5 1
   3    1   31 1
   4    2    3 2
   5    2    4 1
   6    4   12 2
   7    5    6 1
   8    5   32 1
   9    5   33 1
  10    6    7 2
  11    6   10 1
  12    7    8 1
  13    7   34 1
  14    8    9 2
  15    8   35 1
  16    9   10 1
  17    9   36 1
  18   11   12 1
  19   11   15 1
  20   12   13 1
  21   13   14 1
  22   13   23 1
  23   14   15 2
  24   14   37 1
  25   15   30 1
  26   16   17 1
  27   16   21 1
  28   17   18 1
  29   17   28 1
  30   17   29 1
  31   18   19 1
  32   18   26 1
  33   18   27 1
  34   19   20 1
  35   20   21 ar
  36   20   22 ar
  37   21   25 ar
  38   22   23 ar
  39   22   38 1
  40   23   24 ar
  41   24   25 ar
  42   24   39 1
  43   25   40 1
  44   30   41 1
  45   30   42 1
  46   30   43 1
  47   31   44 1
  48   31   45 1
  49   31   46 1

#	End of record

