#	Name: ASD06660105
#	Creating user name:	WinNT
#	Creation time:	15. 06. 2019 21:08

#	Modifying user name:	WinNT
#	Modification time:	15. 06. 2019 21:08

#	Program:	/corina/corina34_cracker 3.40 0067  02.08.2006

@<TRIPOS>MOLECULE
ASD06660105
  80   84    0    0    0
SMALL
NO_CHARGES


@<TRIPOS>ATOM
   1 C1            -0.7545     1.1783     0.9239 C.2     
   2 C2            -0.3778    -0.2085     0.4700 C.3     
   3 C3            -1.2583    -0.6146    -0.7134 C.3     
   4 O4             0.0673     2.0638     0.9065 O.2     
   5 O5            -2.0047     1.4310     1.3422 O.3     
   6 C6            -0.9826    -2.0514    -1.0750 C.ar    
   7 C7            -1.6827    -3.0667    -0.4495 C.ar    
   8 C8            -1.4325    -4.3844    -0.7784 C.ar    
   9 C9            -0.4763    -4.6894    -1.7388 C.ar    
  10 C10            0.2251    -3.6671    -2.3652 C.ar    
  11 C11           -0.0341    -2.3512    -2.0355 C.ar    
  12 N12           -0.2204    -6.0211    -2.0735 N.3     
  13 C13            0.8210    -6.1138    -3.1047 C.3     
  14 C14            0.9718    -7.5702    -3.5499 C.3     
  15 C15            1.3461    -8.4321    -2.3410 C.3     
  16 C16            0.2697    -8.2800    -1.2626 C.3     
  17 C17            0.1393    -6.8030    -0.8838 C.3     
  18 C18            1.4388    -9.8985    -2.7676 C.3     
  19 N19            1.9124   -10.7060    -1.6407 N.pl3   
  20 C20            2.0768   -12.0782    -1.7895 C.ar    
  21 C21            1.7898   -12.6785    -3.0115 C.ar    
  22 C22            1.9579   -14.0447    -3.1456 C.ar    
  23 C23            2.4091   -14.7678    -2.0491 C.ar    
  24 C24            2.6747   -14.1074    -0.8665 C.ar    
  25 N25            2.5104   -12.8015    -0.7689 N.ar    
  26 N26            1.0286    -0.2228     0.0598 N.am    
  27 C27            2.0019    -0.2617     0.9913 C.2     
  28 C28            3.4191    -0.1839     0.5824 C.ar    
  29 C29            4.1698    -1.3537     0.4372 C.ar    
  30 C30            5.4900    -1.2809     0.0563 C.ar    
  31 C31            6.0801    -0.0376    -0.1849 C.ar    
  32 C32            5.3299     1.1317    -0.0398 C.ar    
  33 C33            4.0076     1.0590     0.3351 C.ar    
  34 O34            1.7133    -0.3609     2.1681 O.2     
  35 C35            3.1966     2.3202     0.4856 C.3     
  36 C36            7.4984     0.0403    -0.5931 C.2     
  37 N37            8.3077    -0.9819    -0.7636 N.2     
  38 C38            9.5116    -0.5339    -1.1324 C.2     
  39 C39            9.4629     0.8138    -1.1974 C.2     
  40 N40            8.1904     1.1851    -0.8631 N.pl3   
  41 C41            3.5337    -2.6947     0.6982 C.3     
  42 C42            2.8528    -3.1933    -0.5780 C.3     
  43 H43           -0.5242    -0.9115     1.2900 H       
  44 H44           -2.3077    -0.5036    -0.4404 H       
  45 H45           -1.0357     0.0243    -1.5681 H       
  46 H46           -2.1990     2.3355     1.6237 H       
  47 H47           -2.4257    -2.8289     0.2974 H       
  48 H48           -1.9794    -5.1770    -0.2892 H       
  49 H49            0.9691    -3.9008    -3.1123 H       
  50 H50            0.5075    -1.5556    -2.5256 H       
  51 H51            0.5405    -5.4996    -3.9604 H       
  52 H52            1.7677    -5.7585    -2.6976 H       
  53 H53            0.0293    -7.9218    -3.9697 H       
  54 H54            1.7556    -7.6409    -4.3039 H       
  55 H55            2.3076    -8.1057    -1.9445 H       
  56 H56           -0.6837    -8.6428    -1.6465 H       
  57 H57            0.5520    -8.8579    -0.3826 H       
  58 H58            1.0892    -6.4446    -0.4871 H       
  59 H59           -0.6363    -6.6895    -0.1264 H       
  60 H60            0.4546   -10.2496    -3.0778 H       
  61 H61            2.1366    -9.9914    -3.5998 H       
  62 H62            2.1113   -10.2831    -0.7907 H       
  63 H63            1.4401   -12.0857    -3.8438 H       
  64 H64            1.7427   -14.5382    -4.0818 H       
  65 H65            2.5504   -15.8361    -2.1208 H       
  66 H66            3.0258   -14.6658    -0.0114 H       
  67 H67            1.2593    -0.2043    -0.8822 H       
  68 H68            6.0702    -2.1849    -0.0559 H       
  69 H69            5.7863     2.0926    -0.2263 H       
  70 H70            3.2822     2.6873     1.5083 H       
  71 H71            3.5700     3.0768    -0.2045 H       
  72 H72            2.1510     2.1086     0.2618 H       
  73 H73           10.3765    -1.1457    -1.3424 H       
  74 H74           10.2744     1.4735    -1.4669 H       
  75 H75            7.8452     2.0908    -0.8235 H       
  76 H76            4.3001    -3.4072     1.0033 H       
  77 H77            2.7922    -2.5968     1.4912 H       
  78 H78            2.1580    -2.4351    -0.9391 H       
  79 H79            3.6074    -3.3872    -1.3403 H       
  80 H80            2.3081    -4.1128    -0.3637 H       
@<TRIPOS>BOND
   1    1    2 1
   2    1    4 2
   3    1    5 1
   4    2    3 1
   5    2   26 1
   6    2   43 1
   7    3    6 1
   8    3   44 1
   9    3   45 1
  10    5   46 1
  11    6    7 ar
  12    6   11 ar
  13    7    8 ar
  14    7   47 1
  15    8    9 ar
  16    8   48 1
  17    9   10 ar
  18    9   12 1
  19   10   11 ar
  20   10   49 1
  21   11   50 1
  22   12   13 1
  23   12   17 1
  24   13   14 1
  25   13   51 1
  26   13   52 1
  27   14   15 1
  28   14   53 1
  29   14   54 1
  30   15   16 1
  31   15   18 1
  32   15   55 1
  33   16   17 1
  34   16   56 1
  35   16   57 1
  36   17   58 1
  37   17   59 1
  38   18   19 1
  39   18   60 1
  40   18   61 1
  41   19   20 1
  42   19   62 1
  43   20   21 ar
  44   20   25 ar
  45   21   22 ar
  46   21   63 1
  47   22   23 ar
  48   22   64 1
  49   23   24 ar
  50   23   65 1
  51   24   25 ar
  52   24   66 1
  53   26   27 am
  54   26   67 1
  55   27   28 1
  56   27   34 2
  57   28   29 ar
  58   28   33 ar
  59   29   30 ar
  60   29   41 1
  61   30   31 ar
  62   30   68 1
  63   31   32 ar
  64   31   36 1
  65   32   33 ar
  66   32   69 1
  67   33   35 1
  68   35   70 1
  69   35   71 1
  70   35   72 1
  71   36   37 2
  72   36   40 1
  73   37   38 1
  74   38   39 2
  75   38   73 1
  76   39   40 1
  77   39   74 1
  78   40   75 1
  79   41   42 1
  80   41   76 1
  81   41   77 1
  82   42   78 1
  83   42   79 1
  84   42   80 1

#	End of record

