#	Name: ASD01812964
#	Creating user name:	WinNT
#	Creation time:	15. 06. 2019 19:29

#	Modifying user name:	WinNT
#	Modification time:	15. 06. 2019 19:29

#	Program:	/corina/corina34_cracker 3.40 0067  02.08.2006

@<TRIPOS>MOLECULE
ASD01812964
  49   53    0    0    0
SMALL
NO_CHARGES


@<TRIPOS>ATOM
   1 C1            -0.0167     1.3792     0.0096 C.ar    
   2 C2             0.0021    -0.0041     0.0020 C.ar    
   3 C3             1.2121    -0.6875    -0.0128 C.ar    
   4 C4             2.3956     0.0082    -0.0204 C.ar    
   5 C5             2.3945     1.4071    -0.0133 C.ar    
   6 C6             1.1713     2.0933     0.0021 C.ar    
   7 C7             3.8433    -0.4156    -0.0361 C.3     
   8 N8             4.6316     0.8221    -0.0373 N.am    
   9 C9             3.7906     1.8704    -0.0241 C.2     
  10 C10            6.0944     0.9019    -0.0499 C.3     
  11 C11            6.5834     0.9360    -1.4750 C.ar    
  12 O12            1.1510     3.4495     0.0092 O.3     
  13 O13            4.1349     3.0367    -0.0221 O.2     
  14 C14            6.7420     2.1481    -2.1212 C.ar    
  15 C15            7.1900     2.1825    -3.4273 C.ar    
  16 C16            7.4811     0.9985    -4.0913 C.ar    
  17 C17            7.3208    -0.2170    -3.4397 C.ar    
  18 C18            6.8779    -0.2447    -2.1318 C.ar    
  19 N19            8.1413     2.1796    -6.1908 N.2     
  20 N20            7.9355     1.0301    -5.4170 N.pl3   
  21 C21            8.2535    -0.0435    -6.1752 C.2     
  22 C22            8.6472     0.4107    -7.3875 C.2     
  23 C23            8.5677     1.8076    -7.3709 C.2     
  24 F24           -1.1600    -0.6930     0.0095 F       
  25 C25           -0.0569     4.0688     0.0237 C.ar    
  26 C26           -0.6719     4.3837     1.2425 C.ar    
  27 C27           -1.9152     5.0217     1.2447 C.ar    
  28 C28           -2.5287     5.3371     0.0517 C.ar    
  29 C29           -1.9190     5.0243    -1.1522 C.ar    
  30 C30           -0.6863     4.3983    -1.1696 C.ar    
  31 C31           -0.0301     4.0533     2.4793 C.1     
  32 N32            0.4790     3.7912     3.4604 N.1     
  33 F33           -0.0962     4.1020    -2.3483 F       
  34 H34           -0.9603     1.9046     0.0170 H       
  35 H35            1.2214    -1.7675    -0.0180 H       
  36 H36            4.0711    -1.0043     0.8525 H       
  37 H37            4.0544    -0.9953    -0.9347 H       
  38 H38            6.4133     1.8079     0.4654 H       
  39 H39            6.5102     0.0306     0.4562 H       
  40 H40            6.5151     3.0688    -1.6043 H       
  41 H41            7.3134     3.1295    -3.9317 H       
  42 H42            7.5461    -1.1397    -3.9538 H       
  43 H43            6.7575    -1.1896    -1.6229 H       
  44 H44            8.2027    -1.0777    -5.8682 H       
  45 H45            8.9668    -0.1976    -8.2208 H       
  46 H46            8.8154     2.4655    -8.1908 H       
  47 H47           -2.3951     5.2671     2.1806 H       
  48 H48           -3.4895     5.8301     0.0554 H       
  49 H49           -2.4073     5.2746    -2.0824 H       
@<TRIPOS>BOND
   1    1    2 ar
   2    1    6 ar
   3    1   34 1
   4    2    3 ar
   5    2   24 1
   6    3    4 ar
   7    3   35 1
   8    4    7 1
   9    4    5 ar
  10    5    6 ar
  11    5    9 1
  12    6   12 1
  13    7    8 1
  14    7   36 1
  15    7   37 1
  16    8    9 am
  17    8   10 1
  18    9   13 2
  19   10   11 1
  20   10   38 1
  21   10   39 1
  22   11   14 ar
  23   11   18 ar
  24   12   25 1
  25   14   15 ar
  26   14   40 1
  27   15   16 ar
  28   15   41 1
  29   16   17 ar
  30   16   20 1
  31   17   18 ar
  32   17   42 1
  33   18   43 1
  34   19   20 1
  35   19   23 2
  36   20   21 1
  37   21   22 2
  38   21   44 1
  39   22   23 1
  40   22   45 1
  41   23   46 1
  42   25   26 ar
  43   25   30 ar
  44   26   27 ar
  45   26   31 1
  46   27   28 ar
  47   27   47 1
  48   28   29 ar
  49   28   48 1
  50   29   30 ar
  51   29   49 1
  52   30   33 1
  53   31   32 3

#	End of record

