#	Name: ASD04590879
#	Creating user name:	WinNT
#	Creation time:	15. 06. 2019 20:51

#	Modifying user name:	WinNT
#	Modification time:	15. 06. 2019 20:51

#	Program:	/corina/corina34_cracker 3.40 0067  02.08.2006

@<TRIPOS>MOLECULE
ASD04590879
  63   68    0    0    0
SMALL
NO_CHARGES


@<TRIPOS>ATOM
   1 N1            -0.0170     1.3229    -0.0110 N.ar    
   2 C2             0.0017    -0.0035    -0.0048 C.ar    
   3 N3             1.1297    -0.6953    -0.0117 N.ar    
   4 C4             2.3048    -0.0728    -0.0258 C.ar    
   5 C5             2.3181     1.3353    -0.0332 C.ar    
   6 C6             1.1080     2.0198    -0.0250 C.ar    
   7 N7             3.6036    -0.5178    -0.0360 N.pl3   
   8 C8             4.4824     0.5535    -0.0500 C.ar    
   9 C9             3.7336     1.7402    -0.0488 C.ar    
  10 C10            5.8713     0.6250    -0.0644 C.ar    
  11 C11            6.4998     1.8520    -0.0769 C.ar    
  12 C12            5.7586     3.0234    -0.0753 C.ar    
  13 C13            4.3812     2.9730    -0.0618 C.ar    
  14 N14           -1.2025    -0.6888     0.0098 N.pl3   
  15 C15           -2.4027     0.0122     0.1304 C.ar    
  16 N16           -2.3894     1.3196     0.3309 N.ar    
  17 N17           -3.4685     2.0045     0.4472 N.ar    
  18 C18           -4.6670     1.4488     0.3744 C.ar    
  19 C19           -4.7836     0.0738     0.1645 C.ar    
  20 C20           -3.6200    -0.6635     0.0339 C.ar    
  21 N21           -5.8100     2.2342     0.5072 N.3     
  22 C22            4.0041    -1.9270    -0.0322 C.3     
  23 C23            3.4040    -2.6436     1.1951 C.3     
  24 C24            3.4412    -2.6383    -1.2752 C.3     
  25 C25            2.5188    -3.7623    -0.7598 C.3     
  26 C26            2.1053    -3.2944     0.6576 C.3     
  27 C27           -5.4579     3.6449     0.7205 C.3     
  28 C28           -6.7367     4.4835     0.7818 C.3     
  29 N29           -7.5932     3.9875     1.8680 N.3     
  30 C30           -7.9454     2.5768     1.6547 C.3     
  31 C31           -6.6666     1.7381     1.5935 C.3     
  32 C32           -6.3753     5.9469     1.0444 C.3     
  33 C33           -8.8209     2.0888     2.8106 C.3     
  34 H34            1.0864     3.0996    -0.0307 H       
  35 H35            6.4582    -0.2817    -0.0654 H       
  36 H36            7.5786     1.9009    -0.0877 H       
  37 H37            6.2621     3.9788    -0.0849 H       
  38 H38            3.8059     3.8870    -0.0606 H       
  39 H39           -1.2110    -1.6560    -0.0637 H       
  40 H40           -5.7523    -0.3995     0.1019 H       
  41 H41           -3.6527    -1.7305    -0.1298 H       
  42 H42            5.0911    -2.0060    -0.0170 H       
  43 H43            4.0890    -3.4071     1.5638 H       
  44 H44            3.1734    -1.9249     1.9815 H       
  45 H45            2.8701    -1.9350    -1.8812 H       
  46 H46            4.2551    -3.0632    -1.8628 H       
  47 H47            1.6421    -3.8600    -1.4002 H       
  48 H48            3.0608    -4.7065    -0.7069 H       
  49 H49            1.8147    -4.1441     1.2754 H       
  50 H50            1.3001    -2.5618     0.6030 H       
  51 H51           -4.9117     3.7455     1.6585 H       
  52 H52           -4.8341     3.9925    -0.1030 H       
  53 H53           -7.2691     4.4046    -0.1661 H       
  54 H54           -7.1510     4.1180     2.7655 H       
  55 H55           -8.4915     2.4761     0.7168 H       
  56 H56           -6.9240     0.6956     1.4064 H       
  57 H57           -6.1341     1.8171     2.5413 H       
  58 H58           -5.7385     6.3139     0.2396 H       
  59 H59           -7.2862     6.5439     1.0880 H       
  60 H60           -5.8438     6.0253     1.9928 H       
  61 H61           -9.7307     2.6875     2.8552 H       
  62 H62           -9.0820     1.0425     2.6521 H       
  63 H63           -8.2739     2.1888     3.7481 H       
@<TRIPOS>BOND
   1    1    2 ar
   2    1    6 ar
   3    2    3 ar
   4    2   14 1
   5    3    4 ar
   6    4    5 ar
   7    4    7 1
   8    5    6 ar
   9    5    9 1
  10    6   34 1
  11    7    8 1
  12    7   22 1
  13    8    9 ar
  14    8   10 ar
  15    9   13 ar
  16   10   11 ar
  17   10   35 1
  18   11   12 ar
  19   11   36 1
  20   12   13 ar
  21   12   37 1
  22   13   38 1
  23   14   15 1
  24   14   39 1
  25   15   16 ar
  26   15   20 ar
  27   16   17 ar
  28   17   18 ar
  29   18   19 ar
  30   18   21 1
  31   19   20 ar
  32   19   40 1
  33   20   41 1
  34   21   27 1
  35   21   31 1
  36   22   24 1
  37   22   23 1
  38   22   42 1
  39   23   26 1
  40   23   43 1
  41   23   44 1
  42   24   25 1
  43   24   45 1
  44   24   46 1
  45   25   26 1
  46   25   47 1
  47   25   48 1
  48   26   49 1
  49   26   50 1
  50   27   28 1
  51   27   51 1
  52   27   52 1
  53   28   29 1
  54   28   32 1
  55   28   53 1
  56   29   30 1
  57   29   54 1
  58   30   31 1
  59   30   33 1
  60   30   55 1
  61   31   56 1
  62   31   57 1
  63   32   58 1
  64   32   59 1
  65   32   60 1
  66   33   61 1
  67   33   62 1
  68   33   63 1

#	End of record

