#	Name: ASD05143129
#	Creating user name:	WinNT
#	Creation time:	15. 06. 2019 20:57

#	Modifying user name:	WinNT
#	Modification time:	15. 06. 2019 20:57

#	Program:	/corina/corina34_cracker 3.40 0067  02.08.2006

@<TRIPOS>MOLECULE
ASD05143129
 148  151    0    0    0
SMALL
NO_CHARGES


@<TRIPOS>ATOM
   1 C1             0.8869     2.8184     1.5592 C.2     
   2 C2             1.1131     1.3442     1.7752 C.3     
   3 N3             1.8879     3.6933     1.7805 N.am    
   4 O4            -0.1944     3.2170     1.1813 O.2     
   5 C5             1.6680     5.1264     1.5705 C.3     
   6 C6             1.2764     5.3740     0.1123 C.3     
   7 C7             0.5613     5.6027     2.4757 C.2     
   8 C8             2.4483     5.0063    -0.8000 C.3     
   9 C9             2.0567     5.2539    -2.2581 C.3     
  10 N10            3.1788     4.9019    -3.1317 N.pl3   
  11 C11            3.0597     5.0423    -4.4941 C.2     
  12 N12            4.1128     4.7119    -5.3139 N.pl3   
  13 N13            1.9483     5.4885    -5.0086 N.2     
  14 O14           -0.2242     4.8062     2.9440 O.2     
  15 N15            0.4446     6.9139     2.7649 N.am    
  16 C16           -0.6312     7.3770     3.6449 C.3     
  17 C17           -0.2186     8.6939     4.3053 C.3     
  18 C18            1.1604     8.5320     4.9478 C.3     
  19 C19            2.0006     9.7807     4.6733 C.3     
  20 N20            1.9079    10.1295     3.2492 N.3     
  21 C21            2.8807    11.1726     2.8977 C.3     
  22 C22            2.3382    12.0032     1.7328 C.3     
  23 C23            3.4935    12.7325     1.0443 C.3     
  24 C24            2.9634    13.9941     0.3599 C.3     
  25 N25            2.6471    13.6773    -1.0470 N.am    
  26 C26            4.0128    15.0746     0.4104 C.2     
  27 N27            4.1817    15.7978     1.5350 N.am    
  28 O28            4.7052    15.2933    -0.5610 O.2     
  29 C29            1.3405    13.7799    -1.4162 C.2     
  30 O30            0.4968    14.1090    -0.6096 O.2     
  31 C31            0.9591    13.4786    -2.8427 C.3     
  32 N32           -0.5073    13.2866    -2.9125 N.am    
  33 C33            1.3668    14.6482    -3.7408 C.3     
  34 C34           -0.9157    12.0304    -3.2618 C.2     
  35 O35           -0.1042    11.1569    -3.4839 O.2     
  36 C36           -2.3925    11.7497    -3.3657 C.3     
  37 N37           -2.6030    10.2883    -3.3461 N.am    
  38 C38           -3.1202    12.3884    -2.1811 C.3     
  39 C39           -3.3583     9.7959    -2.3264 C.2     
  40 O40           -3.8234    10.5418    -1.4908 O.2     
  41 C41           -3.6095     8.3121    -2.2493 C.3     
  42 C42            1.0966    14.2940    -5.1805 C.2     
  43 C43           -0.1754    14.4451    -5.8911 C.ar    
  44 C44            0.0543    13.9867    -7.2010 C.ar    
  45 N45            1.3711    13.5899    -7.2674 N.pl3   
  46 C46            1.9776    13.7856    -6.0565 C.2     
  47 C47           -1.4393    14.9154    -5.5291 C.ar    
  48 C48           -2.4479    14.9278    -6.4507 C.ar    
  49 C49           -2.2264    14.4761    -7.7446 C.ar    
  50 C50           -0.9871    14.0088    -8.1232 C.ar    
  51 N51           -4.0619     7.9801    -0.8787 N.am    
  52 C52           -2.3168     7.5554    -2.5609 C.3     
  53 C53           -2.6321     6.1026    -2.8078 C.ar    
  54 C54           -3.2368     5.7178    -3.9896 C.ar    
  55 C55           -3.5261     4.3849    -4.2160 C.ar    
  56 C56           -3.2103     3.4372    -3.2608 C.ar    
  57 C57           -2.6047     3.8220    -2.0790 C.ar    
  58 C58           -2.3115     5.1539    -1.8545 C.ar    
  59 C59           -1.8846     7.5917     2.8359 C.2     
  60 O60           -2.4805     8.6464     2.8931 O.2     
  61 C61           -4.6288    12.3625    -2.4352 C.3     
  62 C62           -5.3653    12.8407    -1.1823 C.3     
  63 N63           -6.8097    12.8159    -1.4255 N.pl3   
  64 C64           -7.6804    13.2061    -0.4356 C.2     
  65 N65           -9.0359    13.1828    -0.6639 N.pl3   
  66 N66           -7.2206    13.5981     0.7193 N.2     
  67 N67           -2.3381     6.5846     2.0396 N.am    
  68 C68           -3.5679     6.8552     1.2686 C.3     
  69 C69           -3.1861     7.2383    -0.1379 C.2     
  70 O70           -2.1207     6.8939    -0.6040 O.2     
  71 C71           -4.3398     8.0038     1.9211 C.3     
  72 C72           -4.4932     7.7322     3.3955 C.2     
  73 N73           -5.1444     8.6145     4.1791 N.am    
  74 C74           -3.5811     6.7511    -5.0311 C.3     
  75 O75           -4.0307     6.7197     3.8769 O.2     
  76 F76           -4.1800     6.1247    -6.1293 F       
  77 F77           -4.4686     7.6851    -4.4858 F       
  78 F78           -2.4144     7.4028    -5.4449 F       
  79 H79            2.1381     1.1787     2.1072 H       
  80 H80            0.4218     0.9779     2.5341 H       
  81 H81            0.9432     0.8097     0.8405 H       
  82 H82            2.7540     3.3741     2.0788 H       
  83 H83            2.5839     5.6717     1.7983 H       
  84 H84            0.4122     4.7599    -0.1410 H       
  85 H85            1.0267     6.4263    -0.0231 H       
  86 H86            3.3125     5.6204    -0.5466 H       
  87 H87            2.6980     3.9540    -0.6645 H       
  88 H88            1.1925     4.6399    -2.5115 H       
  89 H89            1.8070     6.3063    -2.3936 H       
  90 H90            4.0059     4.5698    -2.7488 H       
  91 H91            4.9398     4.3798    -4.9311 H       
  92 H92            4.0287     4.8109    -6.2752 H       
  93 H93            1.8643     5.5875    -5.9699 H       
  94 H94            1.0729     7.5510     2.3904 H       
  95 H95           -0.8192     6.6280     4.4141 H       
  96 H96           -0.1785     9.4811     3.5524 H       
  97 H97           -0.9472     8.9603     5.0711 H       
  98 H98            1.0467     8.3999     6.0238 H       
  99 H99            1.6579     7.6592     4.5251 H       
 100 H100           1.6276    10.6093     5.2753 H       
 101 H101           3.0408     9.5829     4.9320 H       
 102 H102           2.0275     9.3131     2.6684 H       
 103 H103           3.0469    11.8197     3.7590 H       
 104 H104           3.8222    10.7078     2.6052 H       
 105 H105           1.8452    11.3458     1.0166 H       
 106 H106           1.6212    12.7326     2.1096 H       
 107 H107           4.2425    13.0090     1.7863 H       
 108 H108           3.9445    12.0771     0.2992 H       
 109 H109           2.0618    14.3343     0.8691 H       
 110 H110           3.3351    13.4101    -1.6764 H       
 111 H111           3.6279    15.6229     2.3119 H       
 112 H112           4.8571    16.4933     1.5676 H       
 113 H113           1.4627    12.5696    -3.1715 H       
 114 H114          -1.1341    14.0023    -2.7232 H       
 115 H115           0.7900    15.5326    -3.4698 H       
 116 H116           2.4293    14.8533    -3.6103 H       
 117 H117          -2.7778    12.1617    -4.2985 H       
 118 H118          -2.2229     9.7091    -4.0250 H       
 119 H119          -2.8952    11.8300    -1.2725 H       
 120 H120          -2.7891    13.4204    -2.0648 H       
 121 H121          -4.3814     8.0339    -2.9668 H       
 122 H122           1.8052    13.2289    -8.0562 H       
 123 H123           3.0099    13.5576    -5.8361 H       
 124 H124          -1.6191    15.2677    -4.5241 H       
 125 H125          -3.4253    15.2917    -6.1703 H       
 126 H126          -3.0337    14.4918    -8.4618 H       
 127 H127          -0.8247    13.6598    -9.1323 H       
 128 H128          -4.9200     8.2695    -0.5311 H       
 129 H129          -1.8511     7.9821    -3.4493 H       
 130 H130          -1.6334     7.6404    -1.7160 H       
 131 H131          -3.9993     4.0844    -5.1392 H       
 132 H132          -3.4370     2.3962    -3.4374 H       
 133 H133          -2.3582     3.0815    -1.3325 H       
 134 H134          -1.8383     5.4545    -0.9313 H       
 135 H135          -4.8679    13.0205    -3.2706 H       
 136 H136          -4.9397    11.3453    -2.6734 H       
 137 H137          -5.1261    12.1827    -0.3469 H       
 138 H138          -5.0544    13.8579    -0.9441 H       
 139 H139          -7.1519    12.5241    -2.2850 H       
 140 H140          -9.3780    12.8910    -1.5234 H       
 141 H141          -9.6502    13.4581     0.0345 H       
 142 H142          -7.8349    13.8735     1.4177 H       
 143 H143          -1.8771     5.7331     1.9820 H       
 144 H144          -4.1899     5.9603     1.2473 H       
 145 H145          -3.7933     8.9361     1.7784 H       
 146 H146          -5.3251     8.0863     1.4624 H       
 147 H147          -5.5142     9.4244     3.7940 H       
 148 H148          -5.2431     8.4397     5.1280 H       
@<TRIPOS>BOND
   1    1    2 1
   2    1    3 am
   3    1    4 2
   4    2   79 1
   5    2   80 1
   6    2   81 1
   7    3    5 1
   8    3   82 1
   9    5    6 1
  10    5    7 1
  11    5   83 1
  12    6    8 1
  13    6   84 1
  14    6   85 1
  15    7   14 2
  16    7   15 am
  17    8    9 1
  18    8   86 1
  19    8   87 1
  20    9   10 1
  21    9   88 1
  22    9   89 1
  23   10   11 1
  24   10   90 1
  25   11   12 1
  26   11   13 2
  27   12   91 1
  28   12   92 1
  29   13   93 1
  30   15   16 1
  31   15   94 1
  32   16   17 1
  33   16   59 1
  34   16   95 1
  35   17   18 1
  36   17   96 1
  37   17   97 1
  38   18   19 1
  39   18   98 1
  40   18   99 1
  41   19   20 1
  42   19  100 1
  43   19  101 1
  44   20   21 1
  45   20  102 1
  46   21   22 1
  47   21  103 1
  48   21  104 1
  49   22   23 1
  50   22  105 1
  51   22  106 1
  52   23   24 1
  53   23  107 1
  54   23  108 1
  55   24   25 1
  56   24   26 1
  57   24  109 1
  58   25   29 am
  59   25  110 1
  60   26   27 am
  61   26   28 2
  62   27  111 1
  63   27  112 1
  64   29   30 2
  65   29   31 1
  66   31   32 1
  67   31   33 1
  68   31  113 1
  69   32   34 am
  70   32  114 1
  71   33   42 1
  72   33  115 1
  73   33  116 1
  74   34   35 2
  75   34   36 1
  76   36   37 1
  77   36   38 1
  78   36  117 1
  79   37   39 am
  80   37  118 1
  81   38   61 1
  82   38  119 1
  83   38  120 1
  84   39   40 2
  85   39   41 1
  86   41   51 1
  87   41   52 1
  88   41  121 1
  89   42   43 1
  90   42   46 2
  91   43   44 ar
  92   43   47 ar
  93   44   45 1
  94   44   50 ar
  95   45   46 1
  96   45  122 1
  97   46  123 1
  98   47   48 ar
  99   47  124 1
 100   48   49 ar
 101   48  125 1
 102   49   50 ar
 103   49  126 1
 104   50  127 1
 105   51   69 am
 106   51  128 1
 107   52   53 1
 108   52  129 1
 109   52  130 1
 110   53   54 ar
 111   53   58 ar
 112   54   55 ar
 113   54   74 1
 114   55   56 ar
 115   55  131 1
 116   56   57 ar
 117   56  132 1
 118   57   58 ar
 119   57  133 1
 120   58  134 1
 121   59   60 2
 122   59   67 am
 123   61   62 1
 124   61  135 1
 125   61  136 1
 126   62   63 1
 127   62  137 1
 128   62  138 1
 129   63   64 1
 130   63  139 1
 131   64   65 1
 132   64   66 2
 133   65  140 1
 134   65  141 1
 135   66  142 1
 136   67   68 1
 137   67  143 1
 138   68   69 1
 139   68   71 1
 140   68  144 1
 141   69   70 2
 142   71   72 1
 143   71  145 1
 144   71  146 1
 145   72   73 am
 146   72   75 2
 147   73  147 1
 148   73  148 1
 149   74   76 1
 150   74   77 1
 151   74   78 1

#	End of record

