#	Name: ASD03040001
#	Creating user name:	WinNT
#	Creation time:	15. 06. 2019 20:26

#	Modifying user name:	WinNT
#	Modification time:	15. 06. 2019 20:26

#	Program:	/corina/corina34_cracker 3.40 0067  02.08.2006

@<TRIPOS>MOLECULE
ASD03040001
  25   27    0    0    0
SMALL
NO_CHARGES


@<TRIPOS>ATOM
   1 N1            -0.0160     1.3278     0.0093 N.ar    
   2 N2             3.6585    -0.6486    -0.0350 N.pl3   
   3 C3             1.2322    -0.7132    -0.0131 C.ar    
   4 C4             2.3749     1.4114    -0.0135 C.ar    
   5 C5             2.4448     0.0042    -0.0208 C.ar    
   6 C6             0.0021    -0.0041     0.0020 C.ar    
   7 C7             1.1052     2.0469     0.0025 C.ar    
   8 C8             1.2243    -2.1184    -0.0192 C.ar    
   9 C9             3.5430     2.1925    -0.0205 C.ar    
  10 C10           -1.2039    -0.7342     0.0096 C.ar    
  11 C11            1.0496     3.4556     0.0106 C.ar    
  12 C12            0.0385    -2.7858    -0.0119 C.ar    
  13 C13            3.4462     3.5498    -0.0127 C.ar    
  14 C14           -1.1720    -2.0931     0.0025 C.ar    
  15 C15            2.2011     4.1780     0.0030 C.ar    
  16 H16            2.1551    -2.6661    -0.0306 H       
  17 H17            4.5130     1.7178    -0.0317 H       
  18 H18           -2.1509    -0.2151     0.0214 H       
  19 H19            0.0945     3.9596     0.0224 H       
  20 H20            0.0346    -3.8657    -0.0166 H       
  21 H21            4.3451     4.1483    -0.0181 H       
  22 H22           -2.0998    -2.6459     0.0083 H       
  23 H23            2.1509     5.2568     0.0089 H       
  24 H24            3.6877    -1.6182    -0.0398 H       
  25 H25            4.4835    -0.1385    -0.0401 H       
@<TRIPOS>BOND
   1    1    6 ar
   2    1    7 ar
   3    2    5 1
   4    2   24 1
   5    2   25 1
   6    3    5 ar
   7    3    6 ar
   8    3    8 ar
   9    4    5 ar
  10    4    7 ar
  11    4    9 ar
  12    6   10 ar
  13    7   11 ar
  14    8   12 ar
  15    8   16 1
  16    9   13 ar
  17    9   17 1
  18   10   14 ar
  19   10   18 1
  20   11   15 ar
  21   11   19 1
  22   12   14 ar
  23   12   20 1
  24   13   15 ar
  25   13   21 1
  26   14   22 1
  27   15   23 1

#	End of record

