#	Name: ASD01142021
#	Creating user name:	WinNT
#	Creation time:	15. 06. 2019 19:01

#	Modifying user name:	WinNT
#	Modification time:	15. 06. 2019 19:01

#	Program:	/corina/corina34_cracker 3.40 0067  02.08.2006

@<TRIPOS>MOLECULE
ASD01142021
  18   19    0    0    0
SMALL
NO_CHARGES


@<TRIPOS>ATOM
   1 N1            -0.0179     1.4694     0.0101 N.3     
   2 C2             0.0021    -0.0041     0.0020 C.3     
   3 C3             0.9112    -0.4683     1.1087 C.2     
   4 C4             1.8105     0.3436     1.7169 C.2     
   5 C5             2.0094     1.7886     1.3621 C.3     
   6 C6             1.3396     2.0317     0.0002 C.3     
   7 O7             1.0283    -1.6615     1.6850 O.3     
   8 N8             1.8780    -1.6535     2.5539 N.2     
   9 C9             2.4362    -0.4719     2.6726 C.2     
  10 O10            3.4163    -0.1128     3.5398 O.3     
  11 H11           -0.5635     1.8278    -0.7593 H       
  12 H12           -1.0050    -0.3864     0.1687 H       
  13 H13            0.3777    -0.3615    -0.9568 H       
  14 H14            1.5481     2.4220     2.1198 H       
  15 H15            3.0747     2.0090     1.2939 H       
  16 H16            1.9260     1.5519    -0.7834 H       
  17 H17            1.2866     3.1034    -0.1919 H       
  18 H18            4.3113    -0.2378     3.1955 H       
@<TRIPOS>BOND
   1    1    2 1
   2    1    6 1
   3    1   11 1
   4    2    3 1
   5    2   12 1
   6    2   13 1
   7    3    4 2
   8    3    7 1
   9    4    5 1
  10    4    9 1
  11    5    6 1
  12    5   14 1
  13    5   15 1
  14    6   16 1
  15    6   17 1
  16    7    8 1
  17    8    9 2
  18    9   10 1
  19   10   18 1

#	End of record

