#	Name: ASD08830228
#	Creating user name:	WinNT
#	Creation time:	15. 06. 2019 21:20

#	Modifying user name:	WinNT
#	Modification time:	15. 06. 2019 21:20

#	Program:	/corina/corina34_cracker 3.40 0067  02.08.2006

@<TRIPOS>MOLECULE
ASD08830228
  39   40    0    0    0
SMALL
NO_CHARGES


@<TRIPOS>ATOM
   1 C1            -0.7593     1.6256    -0.7411 C.ar    
   2 C2            -0.3364     0.2338    -0.5178 C.2     
   3 C3            -1.3545    -0.8123    -0.1436 C.3     
   4 C4            -0.6558    -2.1608     0.0415 C.3     
   5 N5            -1.6399    -3.1692     0.4570 N.3     
   6 O6             0.8313    -0.0712    -0.6350 O.2     
   7 C7            -2.1078     1.9777    -0.6248 C.ar    
   8 C8            -1.2543    -4.5072    -0.0145 C.3     
   9 C9             0.1860     2.6041    -1.0650 C.ar    
  10 C10           -0.2182     3.9060    -1.2727 C.ar    
  11 C11           -1.5553     4.2454    -1.1610 C.ar    
  12 C12           -2.4961     3.2839    -0.8356 C.ar    
  13 C13           -1.8174    -3.1622     1.9163 C.3     
  14 C14           -2.8918    -4.1835     2.2992 C.3     
  15 O15           -2.5151    -5.4719     1.8058 O.3     
  16 C16           -2.3343    -5.5150     0.3877 C.3     
  17 C17           -2.0420    -0.4105     1.1629 C.3     
  18 C18           -2.3995    -0.9276    -1.2552 C.3     
  19 H19           -0.1988    -2.4654    -0.9000 H       
  20 H20            0.1151    -2.0686     0.8066 H       
  21 H21           -2.8431     1.2285    -0.3710 H       
  22 H22           -1.1534    -4.4956    -1.0998 H       
  23 H23           -0.3041    -4.7924     0.4370 H       
  24 H24            1.2298     2.3409    -1.1518 H       
  25 H25            0.5105     4.6628    -1.5229 H       
  26 H26           -1.8656     5.2670    -1.3242 H       
  27 H27           -3.5377     3.5565    -0.7503 H       
  28 H28           -0.8762    -3.4259     2.3987 H       
  29 H29           -2.1275    -2.1689     2.2405 H       
  30 H30           -2.9864    -4.2228     3.3844 H       
  31 H31           -3.8455    -3.8903     1.8605 H       
  32 H32           -3.2719    -5.2605    -0.1066 H       
  33 H33           -2.0257    -6.5173     0.0905 H       
  34 H34           -2.3905     0.6196     1.0882 H       
  35 H35           -2.8913    -1.0692     1.3440 H       
  36 H36           -1.3339    -0.4957     1.9872 H       
  37 H37           -1.9315    -1.3306    -2.1533 H       
  38 H38           -3.2006    -1.5929    -0.9331 H       
  39 H39           -2.8107     0.0585    -1.4710 H       
@<TRIPOS>BOND
   1    1    2 1
   2    1    9 ar
   3    1    7 ar
   4    2    3 1
   5    2    6 2
   6    3    4 1
   7    3   17 1
   8    3   18 1
   9    4    5 1
  10    4   19 1
  11    4   20 1
  12    5   13 1
  13    5    8 1
  14    7   12 ar
  15    7   21 1
  16    8   16 1
  17    8   22 1
  18    8   23 1
  19    9   10 ar
  20    9   24 1
  21   10   11 ar
  22   10   25 1
  23   11   12 ar
  24   11   26 1
  25   12   27 1
  26   13   14 1
  27   13   28 1
  28   13   29 1
  29   14   15 1
  30   14   30 1
  31   14   31 1
  32   15   16 1
  33   16   32 1
  34   16   33 1
  35   17   34 1
  36   17   35 1
  37   17   36 1
  38   18   37 1
  39   18   38 1
  40   18   39 1

#	End of record

