#	Name: ASD04881122
#	Creating user name:	WinNT
#	Creation time:	15. 06. 2019 20:53

#	Modifying user name:	WinNT
#	Modification time:	15. 06. 2019 20:53

#	Program:	/corina/corina34_cracker 3.40 0067  02.08.2006

@<TRIPOS>MOLECULE
ASD04881122
  74   79    0    0    0
SMALL
NO_CHARGES


@<TRIPOS>ATOM
   1 C1            -0.4914     3.1987     3.4855 C.ar    
   2 C2            -0.8290     2.2022     2.5878 C.ar    
   3 C3             0.0746     1.8041     1.6200 C.ar    
   4 C4             1.3181     2.4008     1.5467 C.ar    
   5 C5             1.6604     3.4019     2.4466 C.ar    
   6 C6             0.7500     3.7995     3.4178 C.ar    
   7 N7             2.9172     4.0071     2.3756 N.3     
   8 C8             3.0831     4.7290     1.1063 C.3     
   9 C9             4.4374     5.4420     1.1013 C.3     
  10 N10            5.5091     4.4536     1.2857 N.3     
  11 C11            5.3432     3.7317     2.5549 C.3     
  12 C12            3.9889     3.0187     2.5599 C.3     
  13 C13            6.7621     5.0570     1.2149 C.ar    
  14 C14            7.2060     5.6046     0.0075 C.ar    
  15 C15            8.4491     6.2038    -0.0623 C.ar    
  16 C16            9.2593     6.2602     1.0757 C.ar    
  17 C17            8.8096     5.7110     2.2792 C.ar    
  18 C18            7.5673     5.1192     2.3459 C.ar    
  19 C19            1.1168     4.8856     4.3960 C.3     
  20 N20            6.3913     5.5456    -1.1306 N.am    
  21 C21            6.5193     6.4733    -2.0998 C.2     
  22 C22            5.6045     6.4674    -3.2458 C.2     
  23 O23            7.3942     7.3160    -2.0239 O.2     
  24 C24            5.6230     7.3449    -4.2919 C.2     
  25 C25            4.5790     6.9698    -5.1518 C.2     
  26 C26            3.9766     5.8934    -4.6001 C.2     
  27 O27            4.6007     5.5904    -3.4543 O.3     
  28 C28           10.5876     6.8985     1.0058 C.2     
  29 O29           10.9784     7.3759    -0.0421 O.2     
  30 N30           11.3679     6.9524     2.1034 N.am    
  31 C31           12.6869     7.5862     2.0340 C.3     
  32 C32           13.3606     7.5132     3.4057 C.3     
  33 C33           14.8233     8.0470     3.3220 C.3     
  34 C34           15.0301     8.5578     4.7916 C.3     
  35 C35           13.7585     9.4770     4.8287 C.3     
  36 C36           12.6555     8.4602     4.4035 C.3     
  37 C37           14.7013     9.4021     2.5604 C.3     
  38 C38           13.9961    10.3491     3.5582 C.3     
  39 H39           15.5666     7.3433     2.9476 H       
  40 H40           13.5786    10.0131     5.7606 H       
  41 H41           -1.2012     3.5104     4.2375 H       
  42 H42           -1.8005     1.7336     2.6432 H       
  43 H43           -0.1920     1.0253     0.9208 H       
  44 H44            2.0236     2.0892     0.7907 H       
  45 H45            3.0412     4.0221     0.2777 H       
  46 H46            2.2850     5.4636     0.9987 H       
  47 H47            4.5751     5.9544     0.1491 H       
  48 H48            4.4690     6.1684     1.9134 H       
  49 H49            6.1413     2.9972     2.6625 H       
  50 H50            5.3851     4.4386     3.3835 H       
  51 H51            3.8512     2.5063     3.5121 H       
  52 H52            3.9574     2.2923     1.7478 H       
  53 H53            8.7943     6.6271    -0.9940 H       
  54 H54            9.4348     5.7537     3.1588 H       
  55 H55            7.2199     4.6993     3.2783 H       
  56 H56            1.5019     4.4355     5.3110 H       
  57 H57            1.8810     5.5270     3.9571 H       
  58 H58            0.2328     5.4798     4.6275 H       
  59 H59            5.7350     4.8370    -1.2211 H       
  60 H60            6.3082     8.1681    -4.4307 H       
  61 H61            4.3079     7.4512    -6.0798 H       
  62 H62            3.1332     5.3625    -5.0163 H       
  63 H63           11.0562     6.5716     2.9393 H       
  64 H64           13.3016     7.0663     1.2992 H       
  65 H65           12.5736     8.6297     1.7399 H       
  66 H66           13.3506     6.4892     3.7791 H       
  67 H67           14.9702     7.7476     5.5183 H       
  68 H68           15.9515     9.1301     4.8996 H       
  69 H69           11.8288     8.9778     3.9167 H       
  70 H70           12.2986     7.9025     5.2693 H       
  71 H71           15.6895     9.7855     2.3063 H       
  72 H72           14.0975     9.2796     1.6612 H       
  73 H73           13.0456    10.6922     3.1495 H       
  74 H74           14.6377    11.1980     3.7946 H       
@<TRIPOS>BOND
   1    1    2 ar
   2    1    6 ar
   3    1   41 1
   4    2    3 ar
   5    2   42 1
   6    3    4 ar
   7    3   43 1
   8    4    5 ar
   9    4   44 1
  10    5    6 ar
  11    5    7 1
  12    6   19 1
  13    7    8 1
  14    7   12 1
  15    8    9 1
  16    8   45 1
  17    8   46 1
  18    9   10 1
  19    9   47 1
  20    9   48 1
  21   10   11 1
  22   10   13 1
  23   11   12 1
  24   11   49 1
  25   11   50 1
  26   12   51 1
  27   12   52 1
  28   13   14 ar
  29   13   18 ar
  30   14   15 ar
  31   14   20 1
  32   15   16 ar
  33   15   53 1
  34   16   17 ar
  35   16   28 1
  36   17   18 ar
  37   17   54 1
  38   18   55 1
  39   19   56 1
  40   19   57 1
  41   19   58 1
  42   20   21 am
  43   20   59 1
  44   21   22 1
  45   21   23 2
  46   22   24 2
  47   22   27 1
  48   24   25 1
  49   24   60 1
  50   25   26 2
  51   25   61 1
  52   26   27 1
  53   26   62 1
  54   28   29 2
  55   28   30 am
  56   30   31 1
  57   30   63 1
  58   31   32 1
  59   31   64 1
  60   31   65 1
  61   32   33 1
  62   32   36 1
  63   32   66 1
  64   33   34 1
  65   33   37 1
  66   33   39 1
  67   34   35 1
  68   34   67 1
  69   34   68 1
  70   35   36 1
  71   35   38 1
  72   35   40 1
  73   36   69 1
  74   36   70 1
  75   37   38 1
  76   37   71 1
  77   37   72 1
  78   38   73 1
  79   38   74 1

#	End of record

