#	Name: ASD07300208
#	Creating user name:	WinNT
#	Creation time:	15. 06. 2019 21:09

#	Modifying user name:	WinNT
#	Modification time:	15. 06. 2019 21:09

#	Program:	/corina/corina34_cracker 3.40 0067  02.08.2006

@<TRIPOS>MOLECULE
ASD07300208
  57   61    0    0    0
SMALL
NO_CHARGES


@<TRIPOS>ATOM
   1 C1            -1.6370     0.2697     1.4537 C.2     
   2 C2            -0.4321     0.3604     0.5532 C.3     
   3 O3            -1.6276     0.8146     2.5321 O.2     
   4 O4            -2.7226    -0.4119     1.0556 O.3     
   5 C5             1.5931     0.6860     2.0263 C.2     
   6 N6             2.3461     1.6749     2.4328 N.2     
   7 C7             1.8934     2.8412     1.9024 C.ar    
   8 C8             0.7754     2.5280     1.1114 C.ar    
   9 N9             0.6083     1.1571     1.2082 N.pl3   
  10 C10            2.3140     4.1693     2.0030 C.ar    
  11 C11            1.6309     5.1561     1.3278 C.ar    
  12 C12            0.5277     4.8415     0.5486 C.ar    
  13 C13            0.0996     3.5344     0.4385 C.ar    
  14 O14            1.7682    -0.6125     2.3626 O.3     
  15 C15            2.7365    -0.9122     3.2688 C.ar    
  16 C16            2.5236    -0.6673     4.6178 C.ar    
  17 C17            3.5066    -0.9714     5.5384 C.ar    
  18 C18            4.7083    -1.5223     5.1141 C.ar    
  19 C19            4.9208    -1.7672     3.7642 C.ar    
  20 C20            3.9350    -1.4680     2.8449 C.ar    
  21 C21            6.9495    -2.3835     5.7575 C.ar    
  22 C22            7.6211    -2.5226     6.9760 C.ar    
  23 C23            8.9031    -3.0515     6.9892 C.ar    
  24 C24            9.4714    -3.4245     5.7798 C.ar    
  25 C25            8.7498    -3.2589     4.6126 C.ar    
  26 N26            7.5320    -2.7524     4.6286 N.ar    
  27 C27            5.6249    -1.6423     7.3791 C.2     
  28 N28            5.7074    -1.8311     6.0490 N.am    
  29 N29            6.7638    -2.0549     7.9676 N.am    
  30 O30            4.6650    -1.1739     7.9620 O.2     
  31 C31            7.0533    -2.0119     9.4030 C.3     
  32 C32            7.7032    -0.6715     9.7523 C.3     
  33 C33           -3.8461    -0.4573     1.9743 C.3     
  34 C34           -4.9814    -1.2723     1.3518 C.3     
  35 H35           -0.0511    -0.6413     0.3539 H       
  36 H36           -0.7155     0.8348    -0.3863 H       
  37 H37            3.1720     4.4216     2.6086 H       
  38 H38            1.9566     6.1828     1.4059 H       
  39 H39            0.0001     5.6247     0.0246 H       
  40 H40           -0.7600     3.2959    -0.1703 H       
  41 H41            1.5890    -0.2384     4.9477 H       
  42 H42            3.3410    -0.7804     6.5884 H       
  43 H43            5.8554    -2.1958     3.4337 H       
  44 H44            4.0984    -1.6628     1.7953 H       
  45 H45            9.4446    -3.1696     7.9161 H       
  46 H46           10.4680    -3.8398     5.7505 H       
  47 H47            9.1912    -3.5488     3.6706 H       
  48 H48            6.1256    -2.1230     9.9643 H       
  49 H49            7.7335    -2.8236     9.6610 H       
  50 H50            8.6310    -0.5603     9.1911 H       
  51 H51            7.0230     0.1402     9.4944 H       
  52 H52            7.9186    -0.6395    10.8203 H       
  53 H53           -3.5332    -0.9244     2.9081 H       
  54 H54           -4.1935     0.5564     2.1738 H       
  55 H55           -5.2944    -0.8052     0.4180 H       
  56 H56           -4.6340    -2.2860     1.1524 H       
  57 H57           -5.8248    -1.3064     2.0415 H       
@<TRIPOS>BOND
   1    1    2 1
   2    1    3 2
   3    1    4 1
   4    2    9 1
   5    2   35 1
   6    2   36 1
   7    4   33 1
   8    5    6 2
   9    5    9 1
  10    5   14 1
  11    6    7 1
  12    7    8 ar
  13    7   10 ar
  14    8    9 1
  15    8   13 ar
  16   10   11 ar
  17   10   37 1
  18   11   12 ar
  19   11   38 1
  20   12   13 ar
  21   12   39 1
  22   13   40 1
  23   14   15 1
  24   15   16 ar
  25   15   20 ar
  26   16   17 ar
  27   16   41 1
  28   17   18 ar
  29   17   42 1
  30   18   19 ar
  31   18   28 1
  32   19   20 ar
  33   19   43 1
  34   20   44 1
  35   21   22 ar
  36   21   26 ar
  37   21   28 1
  38   22   23 ar
  39   22   29 1
  40   23   24 ar
  41   23   45 1
  42   24   25 ar
  43   24   46 1
  44   25   26 ar
  45   25   47 1
  46   27   28 am
  47   27   29 am
  48   27   30 2
  49   29   31 1
  50   31   32 1
  51   31   48 1
  52   31   49 1
  53   32   50 1
  54   32   51 1
  55   32   52 1
  56   33   34 1
  57   33   53 1
  58   33   54 1
  59   34   55 1
  60   34   56 1
  61   34   57 1

#	End of record

