#	Name: ASD01880763
#	Creating user name:	WinNT
#	Creation time:	15. 06. 2019 19:41

#	Modifying user name:	WinNT
#	Modification time:	15. 06. 2019 19:41

#	Program:	/corina/corina34_cracker 3.40 0067  02.08.2006

@<TRIPOS>MOLECULE
ASD01880763
  58   61    0    0    0
SMALL
NO_CHARGES


@<TRIPOS>ATOM
   1 N1             0.0004     1.3124    -0.2014 N.ar    
   2 C2             0.0235    -0.0047    -0.2232 C.ar    
   3 N3             1.1368    -0.6836    -0.0323 N.ar    
   4 C4             2.2861    -0.0620     0.1909 C.ar    
   5 C5             2.3103     1.3186     0.2226 C.ar    
   6 C6             1.1133     2.0072     0.0165 C.ar    
   7 C7             3.5963     2.0630     0.4733 C.3     
   8 O8             4.6351     1.1301     0.7777 O.3     
   9 C9             5.8668     1.6405     1.0312 C.ar    
  10 C10            6.9237     0.7877     1.3345 C.ar    
  11 C11            8.1691     1.3053     1.5903 C.ar    
  12 C12            8.3838     2.6869     1.5481 C.ar    
  13 C13            7.3189     3.5390     1.2426 C.ar    
  14 C14            6.0726     3.0141     0.9820 C.ar    
  15 C15            9.4957     0.6789     1.9413 C.3     
  16 N16           10.4459     1.7872     2.0889 N.am    
  17 C17            9.8002     2.9439     1.8612 C.2     
  18 O18           10.3124     4.0456     1.9067 O.2     
  19 C19           -1.2589    -0.7558    -0.4728 C.3     
  20 C20            7.5351     5.0296     1.1942 C.3     
  21 N21            1.0853     3.3922     0.0383 N.3     
  22 C22           -0.1599     3.8844     0.6438 C.3     
  23 C23           -0.1171     5.4123     0.7215 C.3     
  24 N24            0.0625     5.9640    -0.6287 N.3     
  25 C25            1.3078     5.4718    -1.2342 C.3     
  26 C26            1.2650     3.9439    -1.3119 C.3     
  27 C27            0.0329     7.4325    -0.6056 C.3     
  28 C28           12.6858     1.5150     1.1455 C.3     
  29 C29           11.8647     1.6550     2.4289 C.3     
  30 H30            3.1925    -0.6282     0.3464 H       
  31 H31            3.8671     2.6306    -0.4170 H       
  32 H32            3.4634     2.7454     1.3127 H       
  33 H33            6.7643    -0.2799     1.3689 H       
  34 H34            5.2502     3.6730     0.7457 H       
  35 H35            9.4138     0.1283     2.8785 H       
  36 H36            9.8187     0.0124     1.1416 H       
  37 H37           -1.3830    -0.9170    -1.5437 H       
  38 H38           -1.2215    -1.7183     0.0375 H       
  39 H39           -2.0997    -0.1755    -0.0928 H       
  40 H40            7.8207     5.3227     0.1839 H       
  41 H41            6.6133     5.5397     1.4736 H       
  42 H42            8.3278     5.3046     1.8900 H       
  43 H43           -1.0083     3.5749     0.0334 H       
  44 H44           -0.2640     3.4720     1.6474 H       
  45 H45           -1.0518     5.7813     1.1437 H       
  46 H46            0.7150     5.7211     1.3542 H       
  47 H47            1.4119     5.8841    -2.2379 H       
  48 H48            2.1561     5.7813    -0.6238 H       
  49 H49            2.1997     3.5749    -1.7341 H       
  50 H50            0.4328     3.6350    -1.9446 H       
  51 H51            0.8355     7.8021     0.0326 H       
  52 H52            0.1681     7.8146    -1.6175 H       
  53 H53           -0.9269     7.7705    -0.2148 H       
  54 H54           12.3589     0.6299     0.5997 H       
  55 H55           12.5420     2.3988     0.5240 H       
  56 H56           13.7415     1.4166     1.3985 H       
  57 H57           12.1916     2.5400     2.9747 H       
  58 H58           12.0085     0.7711     3.0504 H       
@<TRIPOS>BOND
   1    1    2 ar
   2    1    6 ar
   3    2    3 ar
   4    2   19 1
   5    3    4 ar
   6    4    5 ar
   7    4   30 1
   8    5    6 ar
   9    5    7 1
  10    6   21 1
  11    7    8 1
  12    7   31 1
  13    7   32 1
  14    8    9 1
  15    9   10 ar
  16    9   14 ar
  17   10   11 ar
  18   10   33 1
  19   11   12 ar
  20   11   15 1
  21   12   13 ar
  22   12   17 1
  23   13   14 ar
  24   13   20 1
  25   14   34 1
  26   15   16 1
  27   15   35 1
  28   15   36 1
  29   16   17 am
  30   16   29 1
  31   17   18 2
  32   19   37 1
  33   19   38 1
  34   19   39 1
  35   20   40 1
  36   20   41 1
  37   20   42 1
  38   21   22 1
  39   21   26 1
  40   22   23 1
  41   22   43 1
  42   22   44 1
  43   23   24 1
  44   23   45 1
  45   23   46 1
  46   24   25 1
  47   24   27 1
  48   25   26 1
  49   25   47 1
  50   25   48 1
  51   26   49 1
  52   26   50 1
  53   27   51 1
  54   27   52 1
  55   27   53 1
  56   28   29 1
  57   28   54 1
  58   28   55 1
  59   28   56 1
  60   29   57 1
  61   29   58 1

#	End of record

