#	Name: ASD01912070
#	Creating user name:	WinNT
#	Creation time:	15. 06. 2019 19:59

#	Modifying user name:	WinNT
#	Modification time:	15. 06. 2019 19:59

#	Program:	/corina/corina34_cracker 3.40 0067  02.08.2006

@<TRIPOS>MOLECULE
ASD01912070
  59   63    0    0    0
SMALL
NO_CHARGES


@<TRIPOS>ATOM
   1 C1             0.0588     1.3929     0.2312 C.ar    
   2 C2             0.0740     0.0101     0.2715 C.ar    
   3 C3             1.2393    -0.6655    -0.0853 C.ar    
   4 N4             2.3210     0.0050    -0.4585 N.ar    
   5 C5             2.3358     1.3217    -0.5065 C.ar    
   6 C6             1.2132     2.0574    -0.1660 C.ar    
   7 C7             1.2704    -2.1483    -0.0468 C.2     
   8 N8             0.2714    -2.9319     0.3032 N.2     
   9 C9             2.3689    -2.9575    -0.3834 C.2     
  10 C10            1.9945    -4.2584    -0.2168 C.2     
  11 N11            0.6986    -4.2624     0.2081 N.pl3   
  12 C12            2.8396    -5.4493    -0.4571 C.ar    
  13 C13           -0.1049    -5.4491     0.5121 C.3     
  14 C14           -0.0228    -5.7471     1.9870 C.2     
  15 N15           -0.6875    -6.8016     2.4995 N.am    
  16 O16            0.6415    -5.0380     2.7129 O.2     
  17 C17           -0.6209    -7.1103     3.9360 C.3     
  18 C18           -1.5037    -7.6706     1.6381 C.3     
  19 C19           -2.8960    -7.8068     2.2636 C.3     
  20 N20           -2.7622    -8.2599     3.6545 N.3     
  21 C21           -2.0498    -7.2697     4.4664 C.3     
  22 C22           -4.0013    -8.5504     4.2036 C.ar    
  23 N23           -5.1109    -8.4054     3.4821 N.ar    
  24 C24           -4.1038    -9.0039     5.5161 C.ar    
  25 C25           -5.3683    -9.2812     6.0200 C.ar    
  26 N26           -6.4289    -9.1052     5.2368 N.ar    
  27 C27           -6.2919    -8.6795     3.9973 C.ar    
  28 F28            1.2399     3.4071    -0.2189 F       
  29 C29            3.9363    -5.3682    -1.3154 C.ar    
  30 C30            2.5463    -6.6560     0.1782 C.ar    
  31 C31            3.3383    -7.7626    -0.0496 C.ar    
  32 C32            4.4217    -7.6771    -0.9056 C.ar    
  33 C33            4.7207    -6.4819    -1.5349 C.ar    
  34 O34           -5.5192    -9.7253     7.2917 O.3     
  35 C35           -6.8527    -9.9874     7.7334 C.3     
  36 H36           -0.8312     1.9434     0.4979 H       
  37 H37           -0.8053    -0.5383     0.5758 H       
  38 H38            3.2352     1.8338    -0.8153 H       
  39 H39            3.3365    -2.6112    -0.7153 H       
  40 H40           -1.1432    -5.2654     0.2358 H       
  41 H41            0.2761    -6.3002    -0.0524 H       
  42 H42           -0.0691    -8.0382     4.0859 H       
  43 H43           -0.1235    -6.2959     4.4628 H       
  44 H44           -1.5897    -7.2265     0.6464 H       
  45 H45           -1.0382    -8.6533     1.5632 H       
  46 H46           -3.4002    -6.8407     2.2426 H       
  47 H47           -3.4790    -8.5341     1.6986 H       
  48 H48           -2.0133    -7.6069     5.5022 H       
  49 H49           -2.5700    -6.3133     4.4129 H       
  50 H50           -3.2228    -9.1369     6.1266 H       
  51 H51           -7.1735    -8.5471     3.3877 H       
  52 H52            4.1707    -4.4357    -1.8072 H       
  53 H53            1.7012    -6.7239     0.8472 H       
  54 H54            3.1122    -8.6975     0.4417 H       
  55 H55            5.0389    -8.5459    -1.0804 H       
  56 H56            5.5676    -6.4214    -2.2024 H       
  57 H57           -7.4426    -9.0730     7.6706 H       
  58 H58           -7.3012   -10.7532     7.1006 H       
  59 H59           -6.8315   -10.3360     8.7660 H       
@<TRIPOS>BOND
   1    1    2 ar
   2    1    6 ar
   3    1   36 1
   4    2    3 ar
   5    2   37 1
   6    3    4 ar
   7    3    7 1
   8    4    5 ar
   9    5    6 ar
  10    5   38 1
  11    6   28 1
  12    7    8 2
  13    7    9 1
  14    8   11 1
  15    9   10 2
  16    9   39 1
  17   10   11 1
  18   10   12 1
  19   11   13 1
  20   12   29 ar
  21   12   30 ar
  22   13   14 1
  23   13   40 1
  24   13   41 1
  25   14   15 am
  26   14   16 2
  27   15   17 1
  28   15   18 1
  29   17   21 1
  30   17   42 1
  31   17   43 1
  32   18   19 1
  33   18   44 1
  34   18   45 1
  35   19   20 1
  36   19   46 1
  37   19   47 1
  38   20   21 1
  39   20   22 1
  40   21   48 1
  41   21   49 1
  42   22   23 ar
  43   22   24 ar
  44   23   27 ar
  45   24   25 ar
  46   24   50 1
  47   25   26 ar
  48   25   34 1
  49   26   27 ar
  50   27   51 1
  51   29   33 ar
  52   29   52 1
  53   30   31 ar
  54   30   53 1
  55   31   32 ar
  56   31   54 1
  57   32   33 ar
  58   32   55 1
  59   33   56 1
  60   34   35 1
  61   35   57 1
  62   35   58 1
  63   35   59 1

#	End of record

