#	Name: ASD01912287
#	Creating user name:	WinNT
#	Creation time:	15. 06. 2019 19:59

#	Modifying user name:	WinNT
#	Modification time:	15. 06. 2019 19:59

#	Program:	/corina/corina34_cracker 3.40 0067  02.08.2006

@<TRIPOS>MOLECULE
ASD01912287
  49   51    0    0    0
SMALL
NO_CHARGES


@<TRIPOS>ATOM
   1 C1            -0.0169     1.3937     0.0097 C.ar    
   2 C2             0.0021    -0.0041     0.0020 C.ar    
   3 C3             1.2200    -0.6586    -0.0132 C.ar    
   4 C4             2.3820     0.1017    -0.0202 C.ar    
   5 C5             2.2917     1.4816    -0.0120 C.ar    
   6 N6             1.1202     2.0835     0.0026 N.ar    
   7 C7             3.5515     2.3086    -0.0196 C.3     
   8 C8            -1.2694     2.0877     0.0194 C.1     
   9 C9            -2.2963     2.6567     0.0274 C.1     
  10 C10           -3.5488     3.3508     0.0371 C.2     
  11 N11           -3.6111     7.1939     1.1690 N.am    
  12 C12           -4.8645     6.4304     1.2214 C.3     
  13 C13           -4.8852     5.4347     0.0547 C.3     
  14 C14           -3.5723     4.6828     0.0444 C.2     
  15 C15           -2.2866     5.4804     0.0422 C.3     
  16 C16           -2.3311     6.4750     1.2091 C.3     
  17 S17           -3.6407     8.8460     1.0592 S.o2    
  18 O18           -2.3991     9.2324     0.4863 O.2     
  19 O19           -4.8981     9.1880     0.4924 O.2     
  20 C20           -3.6480     9.4780     2.7039 C.ar    
  21 C21           -2.4529     9.7469     3.3452 C.ar    
  22 C22           -2.4559    10.2424     4.6347 C.ar    
  23 C23           -3.6593    10.4703     5.2862 C.ar    
  24 C24           -4.8571    10.1997     4.6406 C.ar    
  25 C25           -4.8488     9.7096     3.3490 C.ar    
  26 O26           -3.6649    10.9574     6.5549 O.3     
  27 C27           -4.9406    11.1675     7.1636 C.3     
  28 H28           -0.9211    -0.5645     0.0082 H       
  29 H29            1.2665    -1.7376    -0.0191 H       
  30 H30            3.3483    -0.3807    -0.0317 H       
  31 H31            3.8454     2.5135    -1.0490 H       
  32 H32            3.3719     3.2492     0.5010 H       
  33 H33            4.3485     1.7612     0.4837 H       
  34 H34           -4.4745     2.7944     0.0384 H       
  35 H35           -4.9231     5.8885     2.1653 H       
  36 H36           -5.7111     7.1115     1.1355 H       
  37 H37           -5.7089     4.7329     0.1857 H       
  38 H38           -5.0071     5.9731    -0.8852 H       
  39 H39           -1.4375     4.8082     0.1651 H       
  40 H40           -2.1928     6.0227    -0.8988 H       
  41 H41           -1.5099     7.1856     1.1152 H       
  42 H42           -2.2443     5.9358     2.1524 H       
  43 H43           -1.5163     9.5690     2.8377 H       
  44 H44           -1.5221    10.4520     5.1354 H       
  45 H45           -5.7952    10.3763     5.1456 H       
  46 H46           -5.7810     9.5033     2.8442 H       
  47 H47           -5.5117    11.8834     6.5725 H       
  48 H48           -5.4809    10.2220     7.2105 H       
  49 H49           -4.8022    11.5573     8.1721 H       
@<TRIPOS>BOND
   1    1    2 ar
   2    1    6 ar
   3    1    8 1
   4    2    3 ar
   5    2   28 1
   6    3    4 ar
   7    3   29 1
   8    4    5 ar
   9    4   30 1
  10    5    6 ar
  11    5    7 1
  12    7   31 1
  13    7   32 1
  14    7   33 1
  15    8    9 3
  16    9   10 1
  17   10   14 2
  18   10   34 1
  19   11   12 1
  20   11   16 1
  21   11   17 am
  22   12   13 1
  23   12   35 1
  24   12   36 1
  25   13   14 1
  26   13   37 1
  27   13   38 1
  28   14   15 1
  29   15   16 1
  30   15   39 1
  31   15   40 1
  32   16   41 1
  33   16   42 1
  34   17   18 2
  35   17   19 2
  36   17   20 1
  37   20   21 ar
  38   20   25 ar
  39   21   22 ar
  40   21   43 1
  41   22   23 ar
  42   22   44 1
  43   23   24 ar
  44   23   26 1
  45   24   25 ar
  46   24   45 1
  47   25   46 1
  48   26   27 1
  49   27   47 1
  50   27   48 1
  51   27   49 1

#	End of record

