#	Name: ASD04400005
#	Creating user name:	WinNT
#	Creation time:	15. 06. 2019 20:49

#	Modifying user name:	WinNT
#	Modification time:	15. 06. 2019 20:49

#	Program:	/corina/corina34_cracker 3.40 0067  02.08.2006

@<TRIPOS>MOLECULE
ASD04400005
  51   52    0    0    0
SMALL
NO_CHARGES


@<TRIPOS>ATOM
   1 C1            -0.0184     1.5028     0.0103 C.3     
   2 C2             0.0021    -0.0041     0.0020 C.2     
   3 O3             1.0559    -0.5936    -0.0112 O.2     
   4 C4            -1.2926    -0.7753     0.0102 C.3     
   5 C5            -1.8725    -0.8134    -1.4051 C.3     
   6 C6            -3.2252    -1.4771    -1.3760 C.2     
   7 O7            -3.6789    -1.8783    -0.3305 O.2     
   8 O8            -3.9260    -1.6224    -2.5116 O.3     
   9 N9            -1.0435    -2.1428     0.4729 N.am    
  10 C10           -1.0232    -2.4144     1.7929 C.2     
  11 O11           -1.2111    -1.5267     2.5976 O.2     
  12 C12           -0.7670    -3.8211     2.2689 C.3     
  13 C13            0.5872    -4.2880     1.7853 C.2     
  14 C14            1.6865    -4.0469     2.4478 C.2     
  15 C15            1.6934    -3.2816     3.7516 C.3     
  16 C16            1.7709    -1.7794     3.4718 C.3     
  17 N17            0.4445    -3.5934     4.4526 N.am    
  18 N18           -0.7477    -3.8550     3.7341 N.am    
  19 C19           -1.7015    -4.1029     4.6301 C.2     
  20 O20           -2.8611    -4.3698     4.3821 O.2     
  21 N21           -1.1561    -4.0067     5.8629 N.am    
  22 C22           -1.8725    -4.2082     7.1248 C.3     
  23 C23           -1.7920    -5.6821     7.5272 C.3     
  24 C24           -2.5401    -5.8925     8.8451 C.3     
  25 C25           -2.4609    -7.3443     9.2415 C.2     
  26 O26           -1.8670    -8.1301     8.5417 O.2     
  27 O27           -3.0501    -7.7645    10.3720 O.3     
  28 C28            0.1540    -3.6954     5.7485 C.2     
  29 O29            0.9322    -3.5363     6.6685 O.2     
  30 H30            1.0042     1.8801     0.0026 H       
  31 H31           -0.5455     1.8639    -0.8728 H       
  32 H32           -0.5286     1.8543     0.9071 H       
  33 H33           -2.0013    -0.2884     0.6802 H       
  34 H34           -1.9749     0.2037    -1.7833 H       
  35 H35           -1.2049    -1.3777    -2.0562 H       
  36 H36           -4.7885    -2.0542    -2.4429 H       
  37 H37           -0.8933    -2.8527    -0.1707 H       
  38 H38           -1.5440    -4.4863     1.8924 H       
  39 H39            0.6475    -4.8408     0.8595 H       
  40 H40            2.6238    -4.4074     2.0505 H       
  41 H41            2.5457    -3.5896     4.3571 H       
  42 H42            0.9075    -1.4749     2.8802 H       
  43 H43            1.7755    -1.2338     4.4154 H       
  44 H44            2.6850    -1.5592     2.9203 H       
  45 H45           -1.4185    -3.5939     7.9024 H       
  46 H46           -2.9168    -3.9223     6.9994 H       
  47 H47           -2.2460    -6.2963     6.7496 H       
  48 H48           -0.7477    -5.9680     7.6526 H       
  49 H49           -2.0861    -5.2783     9.6227 H       
  50 H50           -3.5845    -5.6066     8.7197 H       
  51 H51           -2.9721    -8.7047    10.5844 H       
@<TRIPOS>BOND
   1    1    2 1
   2    1   30 1
   3    1   31 1
   4    1   32 1
   5    2    3 2
   6    2    4 1
   7    4    5 1
   8    4    9 1
   9    4   33 1
  10    5    6 1
  11    5   34 1
  12    5   35 1
  13    6    7 2
  14    6    8 1
  15    8   36 1
  16    9   10 am
  17    9   37 1
  18   10   11 2
  19   10   12 1
  20   12   13 1
  21   12   18 1
  22   12   38 1
  23   13   14 2
  24   13   39 1
  25   14   15 1
  26   14   40 1
  27   15   16 1
  28   15   17 1
  29   15   41 1
  30   16   42 1
  31   16   43 1
  32   16   44 1
  33   17   18 1
  34   17   28 am
  35   18   19 am
  36   19   20 2
  37   19   21 am
  38   21   22 1
  39   21   28 am
  40   22   23 1
  41   22   45 1
  42   22   46 1
  43   23   24 1
  44   23   47 1
  45   23   48 1
  46   24   25 1
  47   24   49 1
  48   24   50 1
  49   25   26 2
  50   25   27 1
  51   27   51 1
  52   28   29 2

#	End of record

