#	Name: ASD02408018
#	Creating user name:	WinNT
#	Creation time:	15. 06. 2019 20:21

#	Modifying user name:	WinNT
#	Modification time:	15. 06. 2019 20:21

#	Program:	/corina/corina34_cracker 3.40 0067  02.08.2006

@<TRIPOS>MOLECULE
ASD02408018
  40   42    0    0    0
SMALL
NO_CHARGES


@<TRIPOS>ATOM
   1 C1            -0.0167     1.3777     0.0096 C.ar    
   2 C2             0.0021    -0.0041     0.0020 C.ar    
   3 C3             1.2781     2.1488     0.0014 C.3     
   4 C4             1.6962     2.4134    -1.4221 C.2     
   5 N5             2.8358     3.0945    -1.6501 N.am    
   6 N6             0.9446     1.9704    -2.3931 N.2     
   7 C7             1.2664     2.1753    -3.6768 C.2     
   8 C8             2.4395     2.8832    -3.9865 C.2     
   9 C9             3.2405     3.3489    -2.9123 C.2     
  10 N10            0.4585     1.6982    -4.6796 N.pl3   
  11 O11            4.2686     3.9685    -3.1243 O.2     
  12 C12           -1.1869    -0.7119     0.0091 C.ar    
  13 C13           -2.3936    -0.0358     0.0238 C.ar    
  14 C14           -2.4111     1.3464     0.0314 C.ar    
  15 C15           -1.2232     2.0530     0.0190 C.ar    
  16 Cl16          -1.1642    -2.4477    -0.0010 Cl      
  17 C17           -0.7629     0.9605    -4.3476 C.3     
  18 C18           -1.7766     1.0738    -5.4997 C.3     
  19 C19           -2.0404    -0.3623    -5.9974 C.3     
  20 C20           -1.6820    -1.2565    -4.7846 C.3     
  21 C21           -0.4460    -0.5406    -4.1855 C.3     
  22 C22            2.8184     3.1231    -5.3465 C.1     
  23 N23            3.1190     3.3134    -6.4253 N.1     
  24 H24            0.9445    -0.5314    -0.0098 H       
  25 H25            1.1399     3.0965     0.5217 H       
  26 H26            2.0505     1.5672     0.5048 H       
  27 H27            3.3693     3.4046    -0.9017 H       
  28 H28            0.6966     1.8496    -5.6076 H       
  29 H29           -3.3219    -0.5877     0.0290 H       
  30 H30           -3.3532     1.8744     0.0429 H       
  31 H31           -1.2373     3.1328     0.0253 H       
  32 H32           -1.1973     1.3526    -3.4281 H       
  33 H33           -2.7033     1.5202    -5.1390 H       
  34 H34           -1.3598     1.6777    -6.3057 H       
  35 H35           -3.0896    -0.4863    -6.2660 H       
  36 H36           -1.3982    -0.5957    -6.8466 H       
  37 H37           -2.5012    -1.2793    -4.0660 H       
  38 H38           -1.4244    -2.2643    -5.1105 H       
  39 H39            0.4537    -0.8028    -4.7421 H       
  40 H40           -0.3316    -0.7947    -3.1318 H       
@<TRIPOS>BOND
   1    1    2 ar
   2    1    3 1
   3    1   15 ar
   4    2   12 ar
   5    2   24 1
   6    3    4 1
   7    3   25 1
   8    3   26 1
   9    4    5 1
  10    4    6 2
  11    5    9 am
  12    5   27 1
  13    6    7 1
  14    7    8 2
  15    7   10 1
  16    8    9 1
  17    8   22 1
  18    9   11 2
  19   10   17 1
  20   10   28 1
  21   12   13 ar
  22   12   16 1
  23   13   14 ar
  24   13   29 1
  25   14   15 ar
  26   14   30 1
  27   15   31 1
  28   17   18 1
  29   17   21 1
  30   17   32 1
  31   18   19 1
  32   18   33 1
  33   18   34 1
  34   19   20 1
  35   19   35 1
  36   19   36 1
  37   20   21 1
  38   20   37 1
  39   20   38 1
  40   21   39 1
  41   21   40 1
  42   22   23 3

#	End of record

