#	Name: ASD01811437
#	Creating user name:	WinNT
#	Creation time:	15. 06. 2019 19:26

#	Modifying user name:	WinNT
#	Modification time:	15. 06. 2019 19:26

#	Program:	/corina/corina34_cracker 3.40 0067  02.08.2006

@<TRIPOS>MOLECULE
ASD01811437
  67   72    0    0    0
SMALL
NO_CHARGES


@<TRIPOS>ATOM
   1 C1             0.2210     1.0181     0.0408 C.ar    
   2 C2             0.3729    -0.3467     0.2017 C.ar    
   3 C3             1.6308    -0.8943     0.3450 C.ar    
   4 C4             2.7587    -0.0755     0.3287 C.ar    
   5 C5             2.5944     1.2967     0.1655 C.ar    
   6 C6             1.3352     1.8382     0.0228 C.ar    
   7 N7             4.1108    -0.3964     0.4536 N.pl3   
   8 C8             4.9094     0.7388     0.3802 C.2     
   9 C9             3.9708     1.8992     0.1891 C.3     
  10 C10            4.2762     2.6608    -1.1035 C.3     
  11 N11            4.5464     4.0652    -0.7168 N.3     
  12 C12            5.0110     4.0159     0.6940 C.3     
  13 C13            4.1133     2.9211     1.3284 C.3     
  14 C14            5.5677     4.6636    -1.5868 C.3     
  15 C15            5.0433     4.7536    -3.0306 C.3     
  16 C16            5.0410     6.2498    -3.4062 C.3     
  17 C17            6.0914     6.8809    -2.4588 C.3     
  18 C18            5.8658     6.1083    -1.1354 C.3     
  19 C19            6.2261     0.7888     0.4616 C.2     
  20 C20            4.6232    -1.7563     0.6391 C.3     
  21 C21            4.8924    -2.3795    -0.7063 C.ar    
  22 C22            6.0571    -2.0700    -1.3902 C.ar    
  23 C23            6.3074    -2.6393    -2.6247 C.ar    
  24 C24            5.3866    -3.5250    -3.1794 C.ar    
  25 C25            4.2180    -3.8322    -2.4866 C.ar    
  26 C26            3.9792    -3.2626    -1.2518 C.ar    
  27 F27            6.9487    -1.2107    -0.8500 F       
  28 C28            5.6496    -4.1392    -4.5053 C.2     
  29 C29            6.0134    -3.4784    -5.6421 C.2     
  30 N30            6.1542    -4.3959    -6.6200 N.pl3   
  31 N31            5.8719    -5.6568    -6.0808 N.2     
  32 C32            5.5749    -5.5108    -4.8167 C.2     
  33 C33            6.5362    -4.1208    -8.0073 C.3     
  34 C34            5.2078    -6.6164    -3.8607 C.3     
  35 H35           -0.7653     1.4427    -0.0752 H       
  36 H36           -0.4969    -0.9867     0.2156 H       
  37 H37            1.7421    -1.9611     0.4707 H       
  38 H38            1.2180     2.9044    -0.1032 H       
  39 H39            5.1525     2.2328    -1.5904 H       
  40 H40            3.4179     2.6170    -1.7739 H       
  41 H41            6.0611     3.7279     0.7429 H       
  42 H42            4.8514     4.9759     1.1849 H       
  43 H43            3.1415     3.3302     1.6045 H       
  44 H44            4.6039     2.4715     2.1917 H       
  45 H45            6.4793     4.0668    -1.5572 H       
  46 H46            5.7008     4.2011    -3.7018 H       
  47 H47            4.0309     4.3532    -3.0858 H       
  48 H48            5.3374     6.3824    -4.4467 H       
  49 H49            4.0577     6.6859    -3.2301 H       
  50 H50            7.1006     6.7151    -2.8357 H       
  51 H51            5.8987     7.9450    -2.3225 H       
  52 H52            5.0157     6.5215    -0.5926 H       
  53 H53            6.7641     6.1376    -0.5187 H       
  54 H54            6.7935    -0.1197     0.5997 H       
  55 H55            6.7359     1.7382     0.3901 H       
  56 H56            5.5482    -1.7206     1.2146 H       
  57 H57            3.8848    -2.3529     1.1747 H       
  58 H58            7.2149    -2.3976    -3.1581 H       
  59 H59            3.5011    -4.5182    -2.9132 H       
  60 H60            3.0732    -3.5012    -0.7145 H       
  61 H61            6.1615    -2.4131    -5.7409 H       
  62 H62            7.6211    -4.1670    -8.1015 H       
  63 H63            6.0826    -4.8639    -8.6632 H       
  64 H64            6.1890    -3.1269    -8.2895 H       
  65 H65            6.1103    -6.9994    -3.3843 H       
  66 H66            4.5315    -6.2284    -3.0990 H       
  67 H67            4.7160    -7.4210    -4.4074 H       
@<TRIPOS>BOND
   1    1    2 ar
   2    1    6 ar
   3    1   35 1
   4    2    3 ar
   5    2   36 1
   6    3    4 ar
   7    3   37 1
   8    4    5 ar
   9    4    7 1
  10    5    6 ar
  11    5    9 1
  12    6   38 1
  13    7    8 1
  14    7   20 1
  15    8    9 1
  16    8   19 2
  17    9   10 1
  18    9   13 1
  19   10   11 1
  20   10   39 1
  21   10   40 1
  22   11   12 1
  23   11   14 1
  24   12   13 1
  25   12   41 1
  26   12   42 1
  27   13   43 1
  28   13   44 1
  29   14   15 1
  30   14   18 1
  31   14   45 1
  32   15   16 1
  33   15   46 1
  34   15   47 1
  35   16   17 1
  36   16   48 1
  37   16   49 1
  38   17   18 1
  39   17   50 1
  40   17   51 1
  41   18   52 1
  42   18   53 1
  43   19   54 1
  44   19   55 1
  45   20   21 1
  46   20   56 1
  47   20   57 1
  48   21   22 ar
  49   21   26 ar
  50   22   23 ar
  51   22   27 1
  52   23   24 ar
  53   23   58 1
  54   24   25 ar
  55   24   28 1
  56   25   26 ar
  57   25   59 1
  58   26   60 1
  59   28   29 2
  60   28   32 1
  61   29   30 1
  62   29   61 1
  63   30   31 1
  64   30   33 1
  65   31   32 2
  66   32   34 1
  67   33   62 1
  68   33   63 1
  69   33   64 1
  70   34   65 1
  71   34   66 1
  72   34   67 1

#	End of record

