#	Name: ASD03330279
#	Creating user name:	WinNT
#	Creation time:	15. 06. 2019 20:36

#	Modifying user name:	WinNT
#	Modification time:	15. 06. 2019 20:36

#	Program:	/corina/corina34_cracker 3.40 0067  02.08.2006

@<TRIPOS>MOLECULE
ASD03330279
  54   56    0    0    0
SMALL
NO_CHARGES


@<TRIPOS>ATOM
   1 C1             1.0415     2.0814     0.2571 C.3     
   2 N2             0.9560     0.6177     0.3579 N.3     
   3 C3             1.1722    -0.0196    -0.9535 C.3     
   4 C4             2.4266     0.5621    -1.5529 C.2     
   5 N5             3.0166     1.7021    -1.1073 N.pl3   
   6 C6             2.4957     2.5007     0.0059 C.3     
   7 C7             3.1728     0.1007    -2.5875 C.2     
   8 N8             4.2064     0.9559    -2.7613 N.2     
   9 C9             4.1178     1.9205    -1.8730 C.2     
  10 C10            5.0586     3.0534    -1.7307 C.ar    
  11 C11            5.9626     3.3458    -2.7524 C.ar    
  12 C12            2.9056    -1.1131    -3.3793 C.2     
  13 O13            1.9380    -1.8045    -3.1246 O.2     
  14 C14            3.4678    -2.6637    -5.1727 C.3     
  15 N15            3.7335    -1.4570    -4.3856 N.am    
  16 C16            6.8371     4.4040    -2.6138 C.ar    
  17 C17            6.8188     5.1744    -1.4648 C.ar    
  18 C18            5.9248     4.8896    -0.4482 C.ar    
  19 C19            5.0416     3.8374    -0.5768 C.ar    
  20 C20            4.0661    -3.8788    -4.4610 C.3     
  21 C21            3.3192    -4.1193    -3.1475 C.3     
  22 C22            3.9320    -5.1118    -5.3570 C.3     
  23 C23            5.5451    -3.6205    -4.1668 C.3     
  24 C24           -0.3284     0.2042     0.9388 C.3     
  25 C25            4.1031    -2.5197    -6.5571 C.3     
  26 O26            5.5198    -2.3917    -6.4202 O.3     
  27 H27            0.4176     2.4249    -0.5680 H       
  28 H28            0.6906     2.5298     1.1866 H       
  29 H29            1.2899    -1.0956    -0.8253 H       
  30 H30            0.3234     0.1836    -1.6064 H       
  31 H31            2.5340     3.5592    -0.2514 H       
  32 H32            3.0911     2.3172     0.9003 H       
  33 H33            5.9781     2.7449    -3.6496 H       
  34 H34            2.3915    -2.7985    -5.2792 H       
  35 H35            4.5052    -0.9056    -4.5887 H       
  36 H36            7.5376     4.6312    -3.4038 H       
  37 H37            7.5055     6.0015    -1.3610 H       
  38 H38            5.9154     5.4948     0.4463 H       
  39 H39            4.3441     3.6161     0.2175 H       
  40 H40            2.2655    -4.3033    -3.3571 H       
  41 H41            3.7454    -4.9850    -2.6405 H       
  42 H42            3.4147    -3.2409    -2.5092 H       
  43 H43            4.4641    -4.9404    -6.2928 H       
  44 H44            4.3582    -5.9774    -4.8500 H       
  45 H45            2.8783    -5.2958    -5.5666 H       
  46 H46            5.6571    -2.6425    -3.6988 H       
  47 H47            5.9216    -4.3907    -3.4936 H       
  48 H48            6.1104    -3.6443    -5.0985 H       
  49 H49           -1.1448     0.6185     0.3473 H       
  50 H50           -0.3943    -0.8838     0.9373 H       
  51 H51           -0.3989     0.5711     1.9628 H       
  52 H52            3.8742    -3.4015    -7.1555 H       
  53 H53            3.7041    -1.6329    -7.0495 H       
  54 H54            5.9891    -2.2962    -7.2602 H       
@<TRIPOS>BOND
   1    1    2 1
   2    1    6 1
   3    1   27 1
   4    1   28 1
   5    2    3 1
   6    2   24 1
   7    3    4 1
   8    3   29 1
   9    3   30 1
  10    4    5 1
  11    4    7 2
  12    5    6 1
  13    5    9 1
  14    6   31 1
  15    6   32 1
  16    7    8 1
  17    7   12 1
  18    8    9 2
  19    9   10 1
  20   10   11 ar
  21   10   19 ar
  22   11   16 ar
  23   11   33 1
  24   12   13 2
  25   12   15 am
  26   14   15 1
  27   14   25 1
  28   14   20 1
  29   14   34 1
  30   15   35 1
  31   16   17 ar
  32   16   36 1
  33   17   18 ar
  34   17   37 1
  35   18   19 ar
  36   18   38 1
  37   19   39 1
  38   20   21 1
  39   20   22 1
  40   20   23 1
  41   21   40 1
  42   21   41 1
  43   21   42 1
  44   22   43 1
  45   22   44 1
  46   22   45 1
  47   23   46 1
  48   23   47 1
  49   23   48 1
  50   24   49 1
  51   24   50 1
  52   24   51 1
  53   25   26 1
  54   25   52 1
  55   25   53 1
  56   26   54 1

#	End of record

