#	Name: ASD01882972
#	Creating user name:	WinNT
#	Creation time:	15. 06. 2019 19:45

#	Modifying user name:	WinNT
#	Modification time:	15. 06. 2019 19:45

#	Program:	/corina/corina34_cracker 3.40 0067  02.08.2006

@<TRIPOS>MOLECULE
ASD01882972
  55   59    0    0    0
SMALL
NO_CHARGES


@<TRIPOS>ATOM
   1 C1            -0.0159     1.3220     0.0093 C.2     
   2 N2             0.0021    -0.0041     0.0020 N.2     
   3 C3             1.1523    -0.6857    -0.0126 C.2     
   4 C4             2.3835     0.0173    -0.0206 C.2     
   5 C5             2.3523     1.3664    -0.0131 C.2     
   6 N6             1.1484     2.0132     0.0019 N.pl3   
   7 O7            -1.0993     2.1290     0.0184 O.3     
   8 C8             0.8540     3.4562     0.0125 C.3     
   9 C9            -0.6831     3.5211     0.0242 C.3     
  10 O10            1.1423    -1.9071    -0.0187 O.2     
  11 C11           -1.1944     4.2379    -1.2270 C.3     
  12 O12           -2.6209     4.3119    -1.1842 O.3     
  13 C13           -5.2545     5.6569    -3.3225 C.ar    
  14 C14           -4.4954     6.1789    -4.3752 C.ar    
  15 C15           -5.3292     6.7907    -5.3936 C.2     
  16 C16           -6.6365     6.7440    -5.1442 C.2     
  17 S17           -6.9649     5.9373    -3.6230 S.3     
  18 C18           -3.0884     6.0578    -4.3282 C.ar    
  19 C19           -2.4824     5.4430    -3.2770 C.ar    
  20 C20           -3.2387     4.9235    -2.2291 C.ar    
  21 C21           -4.6141     5.0335    -2.2477 C.ar    
  22 C22           -7.6768     7.3006    -6.0354 C.ar    
  23 C23           -9.0244     7.2023    -5.6864 C.ar    
  24 C24           -9.9901     7.7242    -6.5221 C.ar    
  25 C25           -9.6249     8.3440    -7.7040 C.ar    
  26 C26           -8.2906     8.4447    -8.0558 C.ar    
  27 C27           -7.3148     7.9317    -7.2264 C.ar    
  28 C28          -10.6852     8.9113    -8.6123 C.3     
  29 C29          -11.4804     9.9815    -7.8618 C.3     
  30 C30          -10.0225     9.5366    -9.8414 C.3     
  31 C31          -11.6291     7.7919    -9.0559 C.3     
  32 H32            3.3237    -0.5140    -0.0321 H       
  33 H33            3.2727     1.9314    -0.0185 H       
  34 H34            1.2651     3.9237     0.9072 H       
  35 H35            1.2480     3.9334    -0.8848 H       
  36 H36           -1.0396     4.0220     0.9243 H       
  37 H37           -0.7793     5.2451    -1.2639 H       
  38 H38           -0.8857     3.6850    -2.1142 H       
  39 H39           -4.9216     7.2481    -6.2831 H       
  40 H40           -2.4893     6.4559    -5.1338 H       
  41 H41           -1.4060     5.3570    -3.2546 H       
  42 H42           -5.1978     4.6297    -1.4337 H       
  43 H43           -9.3108     6.7185    -4.7643 H       
  44 H44          -11.0334     7.6485    -6.2534 H       
  45 H45           -8.0122     8.9294    -8.9799 H       
  46 H46           -6.2734     8.0149    -7.5000 H       
  47 H47          -10.8079    10.7790    -7.5457 H       
  48 H48          -12.2472    10.3919    -8.5187 H       
  49 H49          -11.9525     9.5360    -6.9861 H       
  50 H50           -9.4559     8.7742   -10.3761 H       
  51 H51          -10.7893     9.9470   -10.4984 H       
  52 H52           -9.3500    10.3342    -9.5254 H       
  53 H53          -12.1012     7.3464    -8.1803 H       
  54 H54          -12.3959     8.2023    -9.7129 H       
  55 H55          -11.0625     7.0295    -9.5906 H       
@<TRIPOS>BOND
   1    1    2 2
   2    1    6 1
   3    1    7 1
   4    2    3 1
   5    3    4 1
   6    3   10 2
   7    4    5 2
   8    4   32 1
   9    5    6 1
  10    5   33 1
  11    6    8 1
  12    7    9 1
  13    8    9 1
  14    8   34 1
  15    8   35 1
  16    9   11 1
  17    9   36 1
  18   11   12 1
  19   11   37 1
  20   11   38 1
  21   12   20 1
  22   13   14 ar
  23   13   17 1
  24   13   21 ar
  25   14   15 1
  26   14   18 ar
  27   15   16 2
  28   15   39 1
  29   16   17 1
  30   16   22 1
  31   18   19 ar
  32   18   40 1
  33   19   20 ar
  34   19   41 1
  35   20   21 ar
  36   21   42 1
  37   22   23 ar
  38   22   27 ar
  39   23   24 ar
  40   23   43 1
  41   24   25 ar
  42   24   44 1
  43   25   26 ar
  44   25   28 1
  45   26   27 ar
  46   26   45 1
  47   27   46 1
  48   28   29 1
  49   28   31 1
  50   28   30 1
  51   29   47 1
  52   29   48 1
  53   29   49 1
  54   30   50 1
  55   30   51 1
  56   30   52 1
  57   31   53 1
  58   31   54 1
  59   31   55 1

#	End of record

