#	Name: ASD00360024
#	Creating user name:	WinNT
#	Creation time:	15. 06. 2019 18:35

#	Modifying user name:	WinNT
#	Modification time:	15. 06. 2019 18:35

#	Program:	/corina/corina34_cracker 3.40 0067  02.08.2006

@<TRIPOS>MOLECULE
ASD00360024
  48   53    0    0    0
SMALL
NO_CHARGES


@<TRIPOS>ATOM
   1 C1            -0.0168     1.3875     0.0097 C.ar    
   2 C2             0.0021    -0.0041     0.0020 C.ar    
   3 C3             1.2077    -0.6844    -0.0176 C.ar    
   4 C4             2.4133     0.0186    -0.0252 C.ar    
   5 C5             2.4101     1.4052    -0.0143 C.ar    
   6 C6             1.1847     2.1017     0.0020 C.ar    
   7 C7             1.1824     3.5752     0.0128 C.2     
   8 C8             3.6813     2.1621    -0.0178 C.2     
   9 C9             3.6600     3.6054     0.3040 C.ar    
  10 C10            2.4331     4.2971     0.3185 C.ar    
  11 C11            2.4117     5.6596     0.6228 C.ar    
  12 C12            4.8379     4.2836     0.5930 C.ar    
  13 C13            4.8019     5.6364     0.8938 C.ar    
  14 C14            3.6039     6.3201     0.9091 C.ar    
  15 O15            0.1609     4.1900    -0.2280 O.2     
  16 O16            1.2366     6.3360     0.6391 O.3     
  17 O17           -1.1999     2.0499     0.0189 O.3     
  18 C18            6.0826     6.3663     1.2067 C.3     
  19 C19           -1.3063    -0.7540     0.0205 C.3     
  20 N20           -1.0848    -2.1435    -0.4028 N.3     
  21 C21            0.0425    -2.7270     0.3430 C.3     
  22 O22            1.2399    -2.0425    -0.0322 O.3     
  23 O23            4.7288     1.6053    -0.2812 O.2     
  24 C24           -2.2443    -2.9087    -0.2383 C.ar    
  25 C25           -3.3990    -2.3180     0.2705 C.ar    
  26 C26           -4.5477    -3.0614     0.4367 C.ar    
  27 C27           -4.5582    -4.4058     0.0964 C.ar    
  28 C28           -2.2416    -4.2470    -0.5869 C.ar    
  29 C29           -4.9515    -6.5112    -0.3197 C.2     
  30 N30           -3.7119    -6.3107    -0.6528 N.2     
  31 C31           -3.3993    -5.0076    -0.4167 C.ar    
  32 O32           -5.4994    -5.3757     0.1403 O.3     
  33 H33            3.3503    -0.5183    -0.0394 H       
  34 H34            5.7809     3.7572     0.5829 H       
  35 H35            3.5904     7.3740     1.1450 H       
  36 H36            0.7966     6.3394     1.5002 H       
  37 H37           -1.5389     2.2373     0.9049 H       
  38 H38            6.5067     6.7669     0.2859 H       
  39 H39            5.8754     7.1840     1.8971 H       
  40 H40            6.7920     5.6761     1.6633 H       
  41 H41           -1.7165    -0.7433     1.0304 H       
  42 H42           -2.0090    -0.2746    -0.6611 H       
  43 H43           -0.1265    -2.6089     1.4133 H       
  44 H44            0.1342    -3.7854     0.0989 H       
  45 H45           -3.3938    -1.2714     0.5368 H       
  46 H46           -5.4391    -2.5972     0.8320 H       
  47 H47           -1.3468    -4.7023    -0.9851 H       
  48 H48           -5.4675    -7.4564    -0.4019 H       
@<TRIPOS>BOND
   1    1    2 ar
   2    1    6 ar
   3    1   17 1
   4    2    3 ar
   5    2   19 1
   6    3    4 ar
   7    3   22 1
   8    4    5 ar
   9    4   33 1
  10    5    6 ar
  11    5    8 1
  12    6    7 1
  13    7   10 1
  14    7   15 2
  15    8    9 1
  16    8   23 2
  17    9   12 ar
  18    9   10 ar
  19   10   11 ar
  20   11   14 ar
  21   11   16 1
  22   12   13 ar
  23   12   34 1
  24   13   14 ar
  25   13   18 1
  26   14   35 1
  27   16   36 1
  28   17   37 1
  29   18   38 1
  30   18   39 1
  31   18   40 1
  32   19   20 1
  33   19   41 1
  34   19   42 1
  35   20   21 1
  36   20   24 1
  37   21   22 1
  38   21   43 1
  39   21   44 1
  40   24   25 ar
  41   24   28 ar
  42   25   26 ar
  43   25   45 1
  44   26   27 ar
  45   26   46 1
  46   27   32 1
  47   27   31 ar
  48   28   31 ar
  49   28   47 1
  50   29   30 2
  51   29   32 1
  52   29   48 1
  53   30   31 1

#	End of record

