#	Name: ASD01151036
#	Creating user name:	WinNT
#	Creation time:	15. 06. 2019 19:05

#	Modifying user name:	WinNT
#	Modification time:	15. 06. 2019 19:05

#	Program:	/corina/corina34_cracker 3.40 0067  02.08.2006

@<TRIPOS>MOLECULE
ASD01151036
  25   26    0    0    0
SMALL
NO_CHARGES


@<TRIPOS>ATOM
   1 O1             0.0021    -0.0041     0.0020 O.2     
   2 C2            -0.0144     1.2091     0.0087 C.2     
   3 C3             1.2422     1.9575     0.0007 C.2     
   4 C4             1.2580     3.2964     0.0077 C.2     
   5 C5             2.5833     4.0199     0.0071 C.3     
   6 C6             3.7289     3.0033    -0.0831 C.3     
   7 C7             3.5689     1.8962     0.9782 C.3     
   8 C8             2.5866     1.2497    -0.0096 C.3     
   9 C9             3.4680     1.8932    -1.1148 C.3     
  10 C10            2.6811     2.3586    -2.3416 C.3     
  11 C11            4.7094     1.0735    -1.4724 C.3     
  12 H12           -0.9569     1.7363     0.0160 H       
  13 H13            0.3325     3.8530     0.0135 H       
  14 H14            2.6281     4.6935    -0.8487 H       
  15 H15            2.6820     4.5966     0.9268 H       
  16 H16            4.7182     3.4589    -0.1242 H       
  17 H17            4.4740     1.3125     1.1462 H       
  18 H18            3.1012     2.2357     1.9024 H       
  19 H19            2.5325     0.1612     0.0095 H       
  20 H20            1.7469     2.8195    -2.0207 H       
  21 H21            3.2725     3.0856    -2.8983 H       
  22 H22            2.4633     1.5023    -2.9800 H       
  23 H23            4.4270     0.2581    -2.1384 H       
  24 H24            5.4368     1.7143    -1.9707 H       
  25 H25            5.1488     0.6640    -0.5628 H       
@<TRIPOS>BOND
   1    1    2 2
   2    2    3 1
   3    2   12 1
   4    3    4 2
   5    3    8 1
   6    4    5 1
   7    4   13 1
   8    5    6 1
   9    5   14 1
  10    5   15 1
  11    6    7 1
  12    6    9 1
  13    6   16 1
  14    7    8 1
  15    7   17 1
  16    7   18 1
  17    8    9 1
  18    8   19 1
  19    9   10 1
  20    9   11 1
  21   10   20 1
  22   10   21 1
  23   10   22 1
  24   11   23 1
  25   11   24 1
  26   11   25 1

#	End of record

