#	Name: ASD02038022
#	Creating user name:	WinNT
#	Creation time:	15. 06. 2019 20:16

#	Modifying user name:	WinNT
#	Modification time:	15. 06. 2019 20:16

#	Program:	/corina/corina34_cracker 3.40 0067  02.08.2006

@<TRIPOS>MOLECULE
ASD02038022
  54   58    0    0    0
SMALL
NO_CHARGES


@<TRIPOS>ATOM
   1 C1            -0.0165     1.3839     0.0025 C.ar    
   2 N2             1.1847     2.1021     0.0020 N.am    
   3 N3             2.3151     4.1445     0.0016 N.am    
   4 C4             1.1661     3.4464    -0.0923 C.2     
   5 C5             5.2005     5.9259     0.4371 C.3     
   6 O6             6.2236     5.6177     1.3859 O.3     
   7 C7             7.4456     6.1772     1.1796 C.ar    
   8 C8             8.4843     5.9196     2.0630 C.ar    
   9 C9             7.6548     7.0007     0.0833 C.ar    
  10 C10            8.8957     7.5695    -0.1271 C.ar    
  11 C11            9.9336     7.3168     0.7593 C.ar    
  12 C12            9.7247     6.4878     1.8538 C.ar    
  13 N13           11.1930     7.8920     0.5496 N.am    
  14 C14           12.2828     7.3861     1.1555 C.2     
  15 C15           12.1756     6.1837     2.0541 C.3     
  16 C16           10.8530     6.2161     2.8146 C.3     
  17 O17            0.1127     4.0294    -0.2621 O.2     
  18 O18           13.3642     7.9050     0.9749 O.2     
  19 C19           -1.0849     1.8146    -0.7730 C.ar    
  20 C20           -2.2689     1.1034    -0.7707 C.ar    
  21 C21           -2.3910    -0.0364     0.0027 C.ar    
  22 C22           -1.3291    -0.4676     0.7764 C.ar    
  23 C23           -0.1405     0.2360     0.7740 C.ar    
  24 C24            2.6993     5.5632    -0.0481 C.3     
  25 C25            3.9066     5.2112     0.8320 C.3     
  26 C26            3.7357     3.8232     0.2055 C.3     
  27 C27           -3.6843    -0.8100     0.0028 C.3     
  28 C28           -3.6351    -2.2684    -0.4570 C.3     
  29 C29           -3.8317    -1.9395     1.0242 C.3     
  30 H30            2.0306     1.6323     0.0696 H       
  31 H31            5.0309     7.0026     0.4225 H       
  32 H32            5.5114     5.5936    -0.5534 H       
  33 H33            8.3220     5.2750     2.9142 H       
  34 H34            6.8472     7.1969    -0.6063 H       
  35 H35            9.0586     8.2102    -0.9812 H       
  36 H36           11.2804     8.6599    -0.0365 H       
  37 H37           12.2210     5.2764     1.4518 H       
  38 H38           13.0029     6.1873     2.7638 H       
  39 H39           10.8853     7.0051     3.5659 H       
  40 H40           10.6918     5.2554     3.3038 H       
  41 H41           -0.9903     2.7049    -1.3769 H       
  42 H42           -3.1003     1.4380    -1.3733 H       
  43 H43           -1.4277    -1.3579     1.3796 H       
  44 H44            0.6886    -0.1014     1.3782 H       
  45 H45            2.9744     5.9037    -1.0464 H       
  46 H46            1.9837     6.2241     0.4409 H       
  47 H47            3.7046     5.2461     1.9025 H       
  48 H48            3.9008     3.0065     0.9082 H       
  49 H49            4.2873     3.6965    -0.7260 H       
  50 H50           -4.5764    -0.2343    -0.2437 H       
  51 H51           -4.4951    -2.6523    -1.0058 H       
  52 H52           -2.6674    -2.6683    -0.7597 H       
  53 H53           -2.9933    -2.1231     1.6961 H       
  54 H54           -4.8210    -2.1071     1.4500 H       
@<TRIPOS>BOND
   1    1   19 ar
   2    1    2 1
   3    1   23 ar
   4    2    4 am
   5    2   30 1
   6    3    4 am
   7    3   24 1
   8    3   26 1
   9    4   17 2
  10    5    6 1
  11    5   25 1
  12    5   31 1
  13    5   32 1
  14    6    7 1
  15    7    8 ar
  16    7    9 ar
  17    8   12 ar
  18    8   33 1
  19    9   10 ar
  20    9   34 1
  21   10   11 ar
  22   10   35 1
  23   11   12 ar
  24   11   13 1
  25   12   16 1
  26   13   14 am
  27   13   36 1
  28   14   15 1
  29   14   18 2
  30   15   16 1
  31   15   37 1
  32   15   38 1
  33   16   39 1
  34   16   40 1
  35   19   20 ar
  36   19   41 1
  37   20   21 ar
  38   20   42 1
  39   21   22 ar
  40   21   27 1
  41   22   23 ar
  42   22   43 1
  43   23   44 1
  44   24   25 1
  45   24   45 1
  46   24   46 1
  47   25   26 1
  48   25   47 1
  49   26   48 1
  50   26   49 1
  51   27   28 1
  52   27   29 1
  53   27   50 1
  54   28   29 1
  55   28   51 1
  56   28   52 1
  57   29   53 1
  58   29   54 1

#	End of record

