#	Name: ASD07930077
#	Creating user name:	WinNT
#	Creation time:	15. 06. 2019 21:11

#	Modifying user name:	WinNT
#	Modification time:	15. 06. 2019 21:11

#	Program:	/corina/corina34_cracker 3.40 0067  02.08.2006

@<TRIPOS>MOLECULE
ASD07930077
  46   49    0    0    0
SMALL
NO_CHARGES


@<TRIPOS>ATOM
   1 S1            -0.0218     1.7568     0.0117 S.3     
   2 C2             0.0021    -0.0041     0.0020 C.2     
   3 N3             1.0039    -0.6777    -0.4129 N.2     
   4 C4             2.2686    -0.2447    -0.9571 C.3     
   5 C5             2.4022     1.2744    -1.1331 C.3     
   6 C6             1.7645     2.0590    -0.0037 C.3     
   7 O7             1.9952     0.3585    -3.2710 O.3     
   8 C8             2.3528    -0.7412    -2.4245 C.3     
   9 C9             1.6712     1.5094    -2.4705 C.3     
  10 N10           -1.1039    -0.6814     0.4608 N.pl3   
  11 C11            2.1831     2.7861    -3.1406 C.3     
  12 C12            3.4090    -0.8012    -0.1442 C.ar    
  13 C13            4.7171    -0.5192    -0.5038 C.ar    
  14 C14            5.7692    -1.0277     0.2401 C.ar    
  15 C15            5.5184    -1.8183     1.3430 C.ar    
  16 C16            4.2045    -2.1044     1.7082 C.ar    
  17 C17            3.1490    -1.5860     0.9602 C.ar    
  18 C18            2.6203    -3.2448     3.2653 C.ar    
  19 C19            3.9299    -2.9539     2.8933 C.ar    
  20 C20            4.9831    -3.4744     3.6525 C.ar    
  21 C21            4.6779    -4.2607     4.7471 C.ar    
  22 C22            3.3454    -4.5067     5.0557 C.ar    
  23 N23            2.3721    -3.9997     4.3167 N.ar    
  24 O24            3.0385    -5.2778     6.1289 O.3     
  25 C25            1.6516    -5.4954     6.3960 C.3     
  26 F26            4.9672     0.2536    -1.5834 F       
  27 H27            3.4538     1.5459    -1.2250 H       
  28 H28            1.9515     3.1229    -0.1499 H       
  29 H29            2.1946     1.7422     0.9464 H       
  30 H30            3.3693    -1.0652    -2.6480 H       
  31 H31            1.6576    -1.5668    -2.5766 H       
  32 H32            0.5948     1.5692    -2.3096 H       
  33 H33           -1.8759    -0.1890     0.7809 H       
  34 H34           -1.1118    -1.6513     0.4642 H       
  35 H35            3.2520     2.6925    -3.3320 H       
  36 H36            1.6571     2.9376    -4.0833 H       
  37 H37            2.0046     3.6377    -2.4841 H       
  38 H38            6.7873    -0.8055    -0.0437 H       
  39 H39            6.3392    -2.2150     1.9220 H       
  40 H40            2.1290    -1.8016     1.2424 H       
  41 H41            1.7993    -2.8445     2.6889 H       
  42 H42            6.0099    -3.2671     3.3893 H       
  43 H43            5.4658    -4.6794     5.3557 H       
  44 H44            1.1612    -4.5382     6.5732 H       
  45 H45            1.1896    -5.9874     5.5401 H       
  46 H46            1.5462    -6.1264     7.2785 H       
@<TRIPOS>BOND
   1    1    2 1
   2    1    6 1
   3    2    3 2
   4    2   10 1
   5    3    4 1
   6    4    8 1
   7    4   12 1
   8    4    5 1
   9    5    6 1
  10    5    9 1
  11    5   27 1
  12    6   28 1
  13    6   29 1
  14    7    8 1
  15    7    9 1
  16    8   30 1
  17    8   31 1
  18    9   11 1
  19    9   32 1
  20   10   33 1
  21   10   34 1
  22   11   35 1
  23   11   36 1
  24   11   37 1
  25   12   13 ar
  26   12   17 ar
  27   13   14 ar
  28   13   26 1
  29   14   15 ar
  30   14   38 1
  31   15   16 ar
  32   15   39 1
  33   16   17 ar
  34   16   19 1
  35   17   40 1
  36   18   19 ar
  37   18   23 ar
  38   18   41 1
  39   19   20 ar
  40   20   21 ar
  41   20   42 1
  42   21   22 ar
  43   21   43 1
  44   22   23 ar
  45   22   24 1
  46   24   25 1
  47   25   44 1
  48   25   45 1
  49   25   46 1

#	End of record

