#	Name: ASD03930263
#	Creating user name:	WinNT
#	Creation time:	15. 06. 2019 20:47

#	Modifying user name:	WinNT
#	Modification time:	15. 06. 2019 20:47

#	Program:	/corina/corina34_cracker 3.40 0067  02.08.2006

@<TRIPOS>MOLECULE
ASD03930263
  44   47    0    0    0
SMALL
NO_CHARGES


@<TRIPOS>ATOM
   1 O1             1.8862     3.9104    -3.0722 O.3     
   2 C2             0.9932     3.1117    -3.8528 C.3     
   3 C3             1.6630     1.7727    -4.1955 C.3     
   4 C4             2.2574     1.2188    -2.9243 C.2     
   5 C5             2.4491     1.9732    -1.8088 C.2     
   6 C6             2.0897     3.4362    -1.7341 C.3     
   7 N7             2.6842    -0.0314    -2.6549 N.pl3   
   8 N8             3.1512    -0.0453    -1.3307 N.2     
   9 C9             3.0076     1.1585    -0.8296 C.2     
  10 C10            3.3837     1.5853     0.5659 C.3     
  11 F11            4.0197     0.5259     1.2221 F       
  12 F12            4.2507     2.6813     0.5007 F       
  13 F13            2.2298     1.9448     1.2705 F       
  14 C14            2.6656    -1.1177    -3.5352 C.ar    
  15 C15            2.9477    -0.9233    -4.8829 C.ar    
  16 C16            2.9298    -1.9909    -5.7528 C.ar    
  17 C17            2.6283    -3.2703    -5.2796 C.ar    
  18 C18            2.3459    -3.4620    -3.9249 C.ar    
  19 C19            2.3706    -2.3907    -3.0597 C.ar    
  20 C20            2.6077    -4.4174    -6.2094 C.2     
  21 N21            1.8085    -5.4733    -5.9592 N.am    
  22 C22            1.6259    -6.6371    -6.8389 C.3     
  23 C23            0.6050    -7.5717    -6.1563 C.3     
  24 C24           -0.1569    -6.6156    -5.2009 C.3     
  25 C25            0.9774    -5.6557    -4.7553 C.3     
  26 O26            3.3118    -4.4092    -7.2005 O.2     
  27 H27            0.0815     2.9264    -3.2849 H       
  28 H28            0.7453     3.6395    -4.7738 H       
  29 H29            0.9208     1.0784    -4.5894 H       
  30 H30            2.4499     1.9311    -4.9329 H       
  31 H31            2.9020     3.9919    -1.2656 H       
  32 H32            1.1745     3.5618    -1.1554 H       
  33 H33            3.1807     0.0661    -5.2479 H       
  34 H34            3.1483    -1.8391    -6.7995 H       
  35 H35            2.1120    -4.4497    -3.5558 H       
  36 H36            2.1524    -2.5381    -2.0124 H       
  37 H37            1.2430    -6.3138    -7.8068 H       
  38 H38            2.5753    -7.1566    -6.9683 H       
  39 H39           -0.0738    -8.0040    -6.8914 H       
  40 H40            1.1145    -8.3539    -5.5934 H       
  41 H41           -0.9426    -6.0776    -5.7314 H       
  42 H42           -0.5645    -7.1584    -4.3481 H       
  43 H43            1.5596    -6.1044    -3.9504 H       
  44 H44            0.5620    -4.6996    -4.4368 H       
@<TRIPOS>BOND
   1    1    2 1
   2    1    6 1
   3    2    3 1
   4    2   27 1
   5    2   28 1
   6    3    4 1
   7    3   29 1
   8    3   30 1
   9    4    5 2
  10    4    7 1
  11    5    6 1
  12    5    9 1
  13    6   31 1
  14    6   32 1
  15    7    8 1
  16    7   14 1
  17    8    9 2
  18    9   10 1
  19   10   11 1
  20   10   12 1
  21   10   13 1
  22   14   15 ar
  23   14   19 ar
  24   15   16 ar
  25   15   33 1
  26   16   17 ar
  27   16   34 1
  28   17   18 ar
  29   17   20 1
  30   18   19 ar
  31   18   35 1
  32   19   36 1
  33   20   21 am
  34   20   26 2
  35   21   22 1
  36   21   25 1
  37   22   23 1
  38   22   37 1
  39   22   38 1
  40   23   24 1
  41   23   39 1
  42   23   40 1
  43   24   25 1
  44   24   41 1
  45   24   42 1
  46   25   43 1
  47   25   44 1

#	End of record

