#	Name: ASD02560569
#	Creating user name:	WinNT
#	Creation time:	15. 06. 2019 20:25

#	Modifying user name:	WinNT
#	Modification time:	15. 06. 2019 20:25

#	Program:	/corina/corina34_cracker 3.40 0067  02.08.2006

@<TRIPOS>MOLECULE
ASD02560569
  74   78    0    0    0
SMALL
NO_CHARGES


@<TRIPOS>ATOM
   1 N1             0.8118     1.4005    -1.2771 N.2     
   2 N2             0.7588     0.1219    -1.1606 N.2     
   3 C3             2.0475     1.7867    -1.4319 C.2     
   4 N4             2.8307     0.6625    -1.4107 N.pl3   
   5 C5             1.9671    -0.3851    -1.2349 C.2     
   6 S6             2.3964    -2.0907    -1.1284 S.3     
   7 C7             0.7529    -2.8151    -0.9043 C.3     
   8 C8             0.8758    -4.3124    -0.7859 C.2     
   9 O9             1.9670    -4.8380    -0.8471 O.2     
  10 N10           -0.2271    -5.0674    -0.6121 N.am    
  11 C11            4.2228     0.5986    -1.5423 C.ar    
  12 Br12           2.6473     3.5672    -1.6467 Br      
  13 C13            5.0300     0.6694    -0.4284 C.ar    
  14 C14            6.4153     0.6064    -0.5478 C.ar    
  15 C15            7.0104     0.4733    -1.7652 C.ar    
  16 C16            6.2226     0.3973    -2.9262 C.ar    
  17 C17            4.8112     0.4551    -2.8161 C.ar    
  18 C18           -0.1251    -6.4585    -0.5996 C.ar    
  19 C19           -1.2150    -7.2385    -0.9777 C.ar    
  20 C20           -1.1169    -8.6124    -0.9667 C.ar    
  21 C21            0.0782    -9.2227    -0.5755 C.ar    
  22 C22            1.1694    -8.4366    -0.1969 C.ar    
  23 C23            1.0666    -7.0634    -0.2151 C.ar    
  24 C24            0.1869   -10.6946    -0.5620 C.2     
  25 O25           -0.7636   -11.3775    -0.8913 O.2     
  26 Cl26          -2.6986    -6.4787    -1.4627 Cl      
  27 N27            1.3399   -11.2817    -0.1846 N.am    
  28 C28            8.5125     0.4079    -1.8673 C.3     
  29 C29            4.0254     0.3788    -3.9770 C.ar    
  30 C30            6.8088     0.2597    -4.1965 C.ar    
  31 C31            6.0157     0.1893    -5.3002 C.ar    
  32 C32            4.6277     0.2504    -5.1912 C.ar    
  33 C33            1.4479   -12.7427    -0.1711 C.3     
  34 C34            9.3087     1.6065    -1.3476 C.3     
  35 C35            9.3049     0.2926    -0.5636 C.3     
  36 C36            2.9151   -13.1471    -0.3286 C.3     
  37 C37            0.9180   -13.2736     1.1359 C.2     
  38 O38            0.4936   -12.5099     1.9706 O.2     
  39 C39            3.4345   -12.6644    -1.6843 C.3     
  40 O40            0.9174   -14.5948     1.3728 O.3     
  41 C41            0.3921   -15.0347     2.6530 C.3     
  42 C42            4.9300   -12.9681    -1.7951 C.3     
  43 C43            2.6832   -13.3863    -2.8047 C.3     
  44 H44            0.3001    -2.4149     0.0029 H       
  45 H45            0.1271    -2.5685    -1.7620 H       
  46 H46           -1.0917    -4.6434    -0.4956 H       
  47 H47            4.5828     0.7755     0.5490 H       
  48 H48            7.0282     0.6643     0.3395 H       
  49 H49           -1.9623    -9.2172    -1.2596 H       
  50 H50            2.0940    -8.9054     0.1058 H       
  51 H51            1.9100    -6.4556     0.0776 H       
  52 H52            2.0982   -10.7369     0.0782 H       
  53 H53            8.9020    -0.1143    -2.7412 H       
  54 H54            2.9485     0.4213    -3.9072 H       
  55 H55            7.8831     0.2105    -4.2960 H       
  56 H56            6.4687     0.0839    -6.2749 H       
  57 H57            4.0209     0.1920    -6.0827 H       
  58 H58            0.8663   -13.1576    -0.9944 H       
  59 H59           10.2223     1.8726    -1.8793 H       
  60 H60            8.7461     2.4424    -0.9318 H       
  61 H61            8.7397     0.2641     0.3680 H       
  62 H62           10.2159    -0.3056    -0.5795 H       
  63 H63            3.5044   -12.6939     0.4686 H       
  64 H64            3.0009   -14.2322    -0.2720 H       
  65 H65            3.2744   -11.5899    -1.7732 H       
  66 H66            0.9796   -14.5930     3.4579 H       
  67 H67           -0.6472   -14.7198     2.7469 H       
  68 H68            0.4495   -16.1214     2.7153 H       
  69 H69            5.3187   -12.5463    -2.7220 H       
  70 H70            5.4540   -12.5269    -0.9472 H       
  71 H71            5.0825   -14.0473    -1.7948 H       
  72 H72            1.6178   -13.1700    -2.7259 H       
  73 H73            3.0532   -13.0425    -3.7706 H       
  74 H74            2.8433   -14.4608    -2.7159 H       
@<TRIPOS>BOND
   1    1    2 1
   2    1    3 2
   3    2    5 2
   4    3    4 1
   5    3   12 1
   6    4    5 1
   7    4   11 1
   8    5    6 1
   9    6    7 1
  10    7    8 1
  11    7   44 1
  12    7   45 1
  13    8    9 2
  14    8   10 am
  15   10   18 1
  16   10   46 1
  17   11   13 ar
  18   11   17 ar
  19   13   14 ar
  20   13   47 1
  21   14   15 ar
  22   14   48 1
  23   15   16 ar
  24   15   28 1
  25   16   17 ar
  26   16   30 ar
  27   17   29 ar
  28   18   19 ar
  29   18   23 ar
  30   19   20 ar
  31   19   26 1
  32   20   21 ar
  33   20   49 1
  34   21   22 ar
  35   21   24 1
  36   22   23 ar
  37   22   50 1
  38   23   51 1
  39   24   25 2
  40   24   27 am
  41   27   33 1
  42   27   52 1
  43   28   34 1
  44   28   35 1
  45   28   53 1
  46   29   32 ar
  47   29   54 1
  48   30   31 ar
  49   30   55 1
  50   31   32 ar
  51   31   56 1
  52   32   57 1
  53   33   36 1
  54   33   37 1
  55   33   58 1
  56   34   35 1
  57   34   59 1
  58   34   60 1
  59   35   61 1
  60   35   62 1
  61   36   39 1
  62   36   63 1
  63   36   64 1
  64   37   38 2
  65   37   40 1
  66   39   42 1
  67   39   43 1
  68   39   65 1
  69   40   41 1
  70   41   66 1
  71   41   67 1
  72   41   68 1
  73   42   69 1
  74   42   70 1
  75   42   71 1
  76   43   72 1
  77   43   73 1
  78   43   74 1

#	End of record

