#	Name: ASD02590019
#	Creating user name:	WinNT
#	Creation time:	15. 06. 2019 20:25

#	Modifying user name:	WinNT
#	Modification time:	15. 06. 2019 20:25

#	Program:	/corina/corina34_cracker 3.40 0067  02.08.2006

@<TRIPOS>MOLECULE
ASD02590019
  28   30    0    0    0
SMALL
NO_CHARGES


@<TRIPOS>ATOM
   1 C1            -0.0168     1.3892     0.0097 C.ar    
   2 C2             0.0021    -0.0041     0.0020 C.ar    
   3 C3            -1.1787    -0.7188     0.0095 C.ar    
   4 C4            -2.3942    -0.0484     0.0247 C.ar    
   5 C5            -2.4224     1.3576     0.0325 C.ar    
   6 C6            -1.2173     2.0718     0.0305 C.ar    
   7 N7            -3.7133    -0.4598     0.0351 N.pl3   
   8 C8            -4.4889     0.6689     0.0485 C.2     
   9 N9            -3.7244     1.7322     0.0469 N.2     
  10 C10           -5.9684     0.6847     0.0628 C.ar    
  11 C11           -6.6470     1.9025     0.0758 C.ar    
  12 C12           -8.0315     1.9008     0.0890 C.ar    
  13 C13           -8.6923     0.6811     0.0888 C.ar    
  14 C14           -7.9555    -0.4903     0.0754 C.ar    
  15 N15           -6.6395    -0.4613     0.0575 N.ar    
  16 F16            1.1834    -0.6594    -0.0132 F       
  17 F17           -1.2294     3.4227     0.0384 F       
  18 O18            1.1547     2.0815     0.0022 O.3     
  19 C19            1.7011     2.4184    -1.2745 C.3     
  20 H20           -1.1570    -1.7986     0.0031 H       
  21 H21           -4.0306    -1.3764     0.0327 H       
  22 H22           -6.1004     2.8340     0.0759 H       
  23 H23           -8.5847     2.8284     0.0996 H       
  24 H24           -9.7717     0.6460     0.0993 H       
  25 H25           -8.4673    -1.4414     0.0756 H       
  26 H26            1.8964     1.5062    -1.8383 H       
  27 H27            0.9909     3.0386    -1.8214 H       
  28 H28            2.6328     2.9674    -1.1376 H       
@<TRIPOS>BOND
   1    1    2 ar
   2    1   18 1
   3    1    6 ar
   4    2    3 ar
   5    2   16 1
   6    3    4 ar
   7    3   20 1
   8    4    5 ar
   9    4    7 1
  10    5    6 ar
  11    5    9 1
  12    6   17 1
  13    7    8 1
  14    7   21 1
  15    8    9 2
  16    8   10 1
  17   10   11 ar
  18   10   15 ar
  19   11   12 ar
  20   11   22 1
  21   12   13 ar
  22   12   23 1
  23   13   14 ar
  24   13   24 1
  25   14   15 ar
  26   14   25 1
  27   18   19 1
  28   19   26 1
  29   19   27 1
  30   19   28 1

#	End of record

