#	Name: ASD00110006
#	Creating user name:	WinNT
#	Creation time:	15. 06. 2019 18:30

#	Modifying user name:	WinNT
#	Modification time:	15. 06. 2019 18:30

#	Program:	/corina/corina34_cracker 3.40 0067  02.08.2006

@<TRIPOS>MOLECULE
ASD00110006
  76   77    0    0    0
SMALL
NO_CHARGES


@<TRIPOS>ATOM
   1 C1             0.0696     1.8953    -0.0759 C.3     
   2 C2            -0.1065     0.3790    -0.1947 C.3     
   3 C3             0.5499    -0.3017     1.0086 C.3     
   4 N4             1.9771     0.0417     1.0485 N.3     
   5 C5             2.1708     1.4884     1.2098 C.3     
   6 C6             1.5628     2.2225     0.0125 C.3     
   7 C7             1.4950     1.9473     2.4762 C.2     
   8 N8             1.4730     3.2575     2.7916 N.am    
   9 C9             0.8160     3.7036     4.0226 C.3     
  10 C10           -0.5313     2.5778    -1.3064 C.3     
  11 O11            0.9710     1.1377     3.2116 O.2     
  12 C12            0.9335     5.2245     4.1411 C.3     
  13 C13            0.2474     5.6904     5.4268 C.3     
  14 N14            0.3602     7.1507     5.5405 N.3     
  15 C15           -0.2122     9.3364     4.5999 C.3     
  16 C16           -0.4053     7.8224     4.4803 C.3     
  17 C17           -0.0737     7.6108     6.8677 C.3     
  18 C18            0.1160     9.1270     6.9634 C.3     
  19 O19           -0.6096     9.7609     5.9065 O.3     
  20 C20           -2.0436     2.3472    -1.3299 C.3     
  21 C21           -2.6445     3.0296    -2.5604 C.3     
  22 C22           -4.1569     2.7990    -2.5839 C.3     
  23 C23           -4.7578     3.4814    -3.8144 C.3     
  24 C24           -6.2701     3.2508    -3.8379 C.3     
  25 C25           -6.8710     3.9332    -5.0684 C.3     
  26 C26           -8.3834     3.7026    -5.0919 C.3     
  27 C27           -8.9843     4.3850    -6.3224 C.3     
  28 C28          -10.4966     4.1544    -6.3459 C.3     
  29 C29          -11.0975     4.8368    -7.5764 C.3     
  30 H30           -0.4352     2.2514     0.8221 H       
  31 H31           -1.1690     0.1365    -0.2151 H       
  32 H32            0.3650     0.0287    -1.1129 H       
  33 H33            0.0687     0.0386     1.9255 H       
  34 H34            0.4388    -1.3824     0.9198 H       
  35 H35            2.4520    -0.4701     1.7768 H       
  36 H36            3.2369     1.7079     1.2672 H       
  37 H37            2.0606     1.9012    -0.9024 H       
  38 H38            1.6930     3.2971     0.1402 H       
  39 H39            1.8921     3.9050     2.2034 H       
  40 H40           -0.2365     3.4215     3.9956 H       
  41 H41            1.2960     3.2341     4.8813 H       
  42 H42           -0.3276     3.6477    -1.2643 H       
  43 H43           -0.0857     2.1583    -2.2084 H       
  44 H44            1.9860     5.5066     4.1682 H       
  45 H45            0.4535     5.6940     3.2824 H       
  46 H46           -0.8051     5.4083     5.3997 H       
  47 H47            0.7274     5.2210     6.2855 H       
  48 H48            0.8376     9.5832     4.4407 H       
  49 H49           -0.8230     9.8415     3.8516 H       
  50 H50           -0.0502     7.4860     3.5062 H       
  51 H51           -1.4629     7.5809     4.5861 H       
  52 H52           -1.1261     7.3659     7.0117 H       
  53 H53            0.5233     7.1201     7.6363 H       
  54 H54           -0.2574     9.4806     7.9244 H       
  55 H55            1.1753     9.3676     6.8729 H       
  56 H56           -2.2474     1.2772    -1.3721 H       
  57 H57           -2.4892     2.7666    -0.4279 H       
  58 H58           -2.4408     4.0996    -2.5183 H       
  59 H59           -2.1990     2.6101    -3.4624 H       
  60 H60           -4.3606     1.7290    -2.6261 H       
  61 H61           -4.6024     3.2184    -1.6819 H       
  62 H62           -4.5540     4.5514    -3.7723 H       
  63 H63           -4.3122     3.0619    -4.7164 H       
  64 H64           -6.4739     2.1808    -3.8801 H       
  65 H65           -6.7157     3.6702    -2.9359 H       
  66 H66           -6.6673     5.0032    -5.0263 H       
  67 H67           -6.4254     3.5137    -5.9704 H       
  68 H68           -8.5871     2.6326    -5.1341 H       
  69 H69           -8.8289     4.1220    -4.1899 H       
  70 H70           -8.7805     5.4550    -6.2803 H       
  71 H71           -8.5387     3.9655    -7.2244 H       
  72 H72          -10.7003     3.0844    -6.3881 H       
  73 H73          -10.9422     4.5738    -5.4439 H       
  74 H74          -10.8937     5.9068    -7.5343 H       
  75 H75          -10.6519     4.4174    -8.4784 H       
  76 H76          -12.1749     4.6725    -7.5932 H       
@<TRIPOS>BOND
   1    1    2 1
   2    1    6 1
   3    1   10 1
   4    1   30 1
   5    2    3 1
   6    2   31 1
   7    2   32 1
   8    3    4 1
   9    3   33 1
  10    3   34 1
  11    4    5 1
  12    4   35 1
  13    5    6 1
  14    5    7 1
  15    5   36 1
  16    6   37 1
  17    6   38 1
  18    7    8 am
  19    7   11 2
  20    8    9 1
  21    8   39 1
  22    9   12 1
  23    9   40 1
  24    9   41 1
  25   10   20 1
  26   10   42 1
  27   10   43 1
  28   12   13 1
  29   12   44 1
  30   12   45 1
  31   13   14 1
  32   13   46 1
  33   13   47 1
  34   14   17 1
  35   14   16 1
  36   15   16 1
  37   15   19 1
  38   15   48 1
  39   15   49 1
  40   16   50 1
  41   16   51 1
  42   17   18 1
  43   17   52 1
  44   17   53 1
  45   18   19 1
  46   18   54 1
  47   18   55 1
  48   20   21 1
  49   20   56 1
  50   20   57 1
  51   21   22 1
  52   21   58 1
  53   21   59 1
  54   22   23 1
  55   22   60 1
  56   22   61 1
  57   23   24 1
  58   23   62 1
  59   23   63 1
  60   24   25 1
  61   24   64 1
  62   24   65 1
  63   25   26 1
  64   25   66 1
  65   25   67 1
  66   26   27 1
  67   26   68 1
  68   26   69 1
  69   27   28 1
  70   27   70 1
  71   27   71 1
  72   28   29 1
  73   28   72 1
  74   28   73 1
  75   29   74 1
  76   29   75 1
  77   29   76 1

#	End of record

