#	Name: ASD03091304
#	Creating user name:	WinNT
#	Creation time:	15. 06. 2019 20:30

#	Modifying user name:	WinNT
#	Modification time:	15. 06. 2019 20:30

#	Program:	/corina/corina34_cracker 3.40 0067  02.08.2006

@<TRIPOS>MOLECULE
ASD03091304
  64   68    0    0    0
SMALL
NO_CHARGES


@<TRIPOS>ATOM
   1 N1             0.1613     1.3431     0.0900 N.2     
   2 C2             0.1955     0.0367     0.1350 C.2     
   3 N3             1.3414    -0.6875    -0.0553 N.am    
   4 C4             2.5145    -0.0602    -0.3044 C.2     
   5 C5             2.4996     1.4092    -0.3600 C.ar    
   6 C6             3.6550     2.1458    -0.6106 C.ar    
   7 C7             3.5832     3.5281    -0.6523 C.ar    
   8 C8             2.3666     4.1786    -0.4452 C.ar    
   9 C9             1.2261     3.4701    -0.1986 C.ar    
  10 C10            1.2693     2.0732    -0.1508 C.ar    
  11 O11            3.5429    -0.6885    -0.4756 O.2     
  12 C12            1.2977    -2.1504     0.0117 C.3     
  13 C13            1.1180    -2.7203    -1.3967 C.3     
  14 C14            0.9937    -4.2432    -1.3186 C.3     
  15 C15           -0.1490    -2.1367    -2.0252 C.3     
  16 C16            2.3297    -2.3508    -2.2548 C.3     
  17 O17            0.8258    -4.7755    -2.6341 O.3     
  18 C18           -1.0619    -0.6920     0.4043 C.ar    
  19 C19           -1.1316    -1.6036     1.4592 C.ar    
  20 C20           -2.3092    -2.2808     1.7051 C.ar    
  21 C21           -3.4192    -2.0570     0.9077 C.ar    
  22 C22           -3.3556    -1.1553    -0.1392 C.ar    
  23 C23           -2.1863    -0.4674    -0.3915 C.ar    
  24 Cl24          -2.3986    -3.4155     3.0159 Cl      
  25 N25            7.2498     5.0253    -2.2791 N.3     
  26 C26            7.2141     4.2012    -1.0612 C.3     
  27 C27            5.9181     3.4090    -0.9864 C.3     
  28 N28            4.7368     4.2761    -0.9030 N.3     
  29 C29            4.5915     5.0730    -2.1293 C.3     
  30 C30            5.2480     6.4348    -1.9582 C.3     
  31 C31            6.7622     6.3801    -1.9835 C.3     
  32 C32            6.6388     4.4514    -3.4588 C.3     
  33 C33            5.1363     4.2819    -3.3045 C.3     
  34 H34            4.5977     1.6437    -0.7705 H       
  35 H35            2.3266     5.2573    -0.4801 H       
  36 H36            0.2916     3.9879    -0.0402 H       
  37 H37            2.2293    -2.5225     0.4381 H       
  38 H38            0.4617    -2.4606     0.6386 H       
  39 H39            1.8963    -4.6590    -0.8709 H       
  40 H40            0.1304    -4.5064    -0.7073 H       
  41 H41           -0.0391    -1.0572    -2.1289 H       
  42 H42           -0.3055    -2.5820    -3.0077 H       
  43 H43           -1.0050    -2.3551    -1.3868 H       
  44 H44            3.2323    -2.7666    -1.8071 H       
  45 H45            2.2016    -2.7569    -3.2583 H       
  46 H46            2.4182    -1.2659    -2.3105 H       
  47 H47            0.7401    -5.7383    -2.6609 H       
  48 H48           -0.2663    -1.7788     2.0812 H       
  49 H49           -4.3383    -2.5892     1.1039 H       
  50 H50           -4.2245    -0.9858    -0.7577 H       
  51 H51           -2.1400     0.2402    -1.2061 H       
  52 H52            8.0572     3.5104    -1.0703 H       
  53 H53            7.2904     4.8483    -0.1874 H       
  54 H54            5.8349     2.7835    -1.8752 H       
  55 H55            5.9474     2.7666    -0.1063 H       
  56 H56            3.5274     5.2299    -2.3053 H       
  57 H57            4.9085     7.0896    -2.7607 H       
  58 H58            4.9295     6.8591    -1.0061 H       
  59 H59            7.1458     6.6924    -1.0122 H       
  60 H60            7.1303     7.0653    -2.7471 H       
  61 H61            6.8354     5.1021    -4.3108 H       
  62 H62            7.0867     3.4763    -3.6501 H       
  63 H63            4.9124     3.2257    -3.1548 H       
  64 H64            4.6460     4.6205    -4.2172 H       
@<TRIPOS>BOND
   1    1    2 2
   2    1   10 1
   3    2    3 1
   4    2   18 1
   5    3    4 am
   6    3   12 1
   7    4    5 1
   8    4   11 2
   9    5    6 ar
  10    5   10 ar
  11    6    7 ar
  12    6   34 1
  13    7    8 ar
  14    7   28 1
  15    8    9 ar
  16    8   35 1
  17    9   10 ar
  18    9   36 1
  19   12   13 1
  20   12   37 1
  21   12   38 1
  22   13   14 1
  23   13   15 1
  24   13   16 1
  25   14   17 1
  26   14   39 1
  27   14   40 1
  28   15   41 1
  29   15   42 1
  30   15   43 1
  31   16   44 1
  32   16   45 1
  33   16   46 1
  34   17   47 1
  35   18   19 ar
  36   18   23 ar
  37   19   20 ar
  38   19   48 1
  39   20   21 ar
  40   20   24 1
  41   21   22 ar
  42   21   49 1
  43   22   23 ar
  44   22   50 1
  45   23   51 1
  46   25   26 1
  47   25   31 1
  48   25   32 1
  49   26   27 1
  50   26   52 1
  51   26   53 1
  52   27   28 1
  53   27   54 1
  54   27   55 1
  55   28   29 1
  56   29   30 1
  57   29   33 1
  58   29   56 1
  59   30   31 1
  60   30   57 1
  61   30   58 1
  62   31   59 1
  63   31   60 1
  64   32   33 1
  65   32   61 1
  66   32   62 1
  67   33   63 1
  68   33   64 1

#	End of record

