#	Name: ASD02039125
#	Creating user name:	WinNT
#	Creation time:	15. 06. 2019 20:17

#	Modifying user name:	WinNT
#	Modification time:	15. 06. 2019 20:17

#	Program:	/corina/corina34_cracker 3.40 0067  02.08.2006

@<TRIPOS>MOLECULE
ASD02039125
  35   38    0    0    0
SMALL
NO_CHARGES


@<TRIPOS>ATOM
   1 N1             0.0234     1.2845    -0.3604 N.2     
   2 N2             0.0398    -0.0019    -0.3615 N.2     
   3 C3             1.2243     1.7332    -0.0874 C.2     
   4 O4             2.0203     0.6621     0.0885 O.3     
   5 C5             1.2410    -0.4221    -0.0917 C.2     
   6 N6             1.6034     3.0607     0.0028 N.pl3   
   7 C7             0.6404     4.0705    -0.0881 C.ar    
   8 C8             1.6810    -1.8604     0.0024 C.3     
   9 C9             2.1408    -2.3346    -1.3521 C.ar    
  10 C10           -0.6623     3.8292     0.3297 C.ar    
  11 C11            0.9860     5.3181    -0.5909 C.ar    
  12 C12            0.0333     6.3144    -0.6794 C.ar    
  13 C13           -1.2648     6.0708    -0.2678 C.ar    
  14 Cl14          -2.4595     7.3252    -0.3810 Cl      
  15 C15            3.4507    -2.1934    -1.7090 C.ar    
  16 C16            1.2286    -2.9166    -2.2235 C.ar    
  17 C17            1.6205    -3.3551    -3.4567 C.ar    
  18 C18            2.9491    -3.2195    -3.8506 C.ar    
  19 C19            3.8765    -2.6344    -2.9666 C.ar    
  20 C20           -1.6117     4.8292     0.2391 C.ar    
  21 N21            3.6409    -3.5487    -4.9869 N.pl3   
  22 N22            4.9800    -3.1759    -4.8311 N.2     
  23 C23            5.1609    -2.6365    -3.6595 C.2     
  24 Cl24          -3.2417     4.5270     0.7542 Cl      
  25 H25            2.5371     3.2910     0.1291 H       
  26 H26            2.5021    -1.9433     0.7144 H       
  27 H27            0.8455    -2.4747     0.3381 H       
  28 H28           -0.9328     2.8610     0.7245 H       
  29 H29            1.9993     5.5094    -0.9122 H       
  30 H30            0.3022     7.2847    -1.0700 H       
  31 H31            4.1545    -1.7433    -1.0245 H       
  32 H32            0.1971    -3.0241    -1.9221 H       
  33 H33            0.9013    -3.8061    -4.1244 H       
  34 H34            3.2626    -3.9725    -5.7731 H       
  35 H35            6.0943    -2.2570    -3.2708 H       
@<TRIPOS>BOND
   1    1    2 1
   2    1    3 2
   3    2    5 2
   4    3    4 1
   5    3    6 1
   6    4    5 1
   7    5    8 1
   8    6    7 1
   9    6   25 1
  10    7   10 ar
  11    7   11 ar
  12    8    9 1
  13    8   26 1
  14    8   27 1
  15    9   15 ar
  16    9   16 ar
  17   10   20 ar
  18   10   28 1
  19   11   12 ar
  20   11   29 1
  21   12   13 ar
  22   12   30 1
  23   13   20 ar
  24   13   14 1
  25   15   19 ar
  26   15   31 1
  27   16   17 ar
  28   16   32 1
  29   17   18 ar
  30   17   33 1
  31   18   19 ar
  32   18   21 1
  33   19   23 1
  34   20   24 1
  35   21   22 1
  36   21   34 1
  37   22   23 2
  38   23   35 1

#	End of record

