#	Name: ASD01230047
#	Creating user name:	WinNT
#	Creation time:	15. 06. 2019 19:11

#	Modifying user name:	WinNT
#	Modification time:	15. 06. 2019 19:11

#	Program:	/corina/corina34_cracker 3.40 0067  02.08.2006

@<TRIPOS>MOLECULE
ASD01230047
  25   26    0    0    0
SMALL
NO_CHARGES


@<TRIPOS>ATOM
   1 C1            -0.0920     1.3419     0.1543 C.ar    
   2 C2            -0.0244    -0.0465     0.1204 C.ar    
   3 S3             1.3940     2.2910     0.0213 S.o2    
   4 N4             2.6056     1.1401     0.0746 N.am    
   5 C5             2.2819    -0.1300    -0.6088 C.3     
   6 N6             1.1509    -0.7657     0.0553 N.3     
   7 O7             1.4121     2.8510    -1.2845 O.2     
   8 O8             1.5015     3.0607     1.2110 O.2     
   9 C9            -1.2357    -0.7478     0.1972 C.ar    
  10 C10           -2.4144    -0.0459     0.3161 C.ar    
  11 N11           -2.4244     1.2731     0.3593 N.ar    
  12 C12           -1.3066     1.9740     0.2829 C.ar    
  13 C13            0.9148    -2.1128    -0.4808 C.3     
  14 C14            0.3916    -2.0066    -1.9146 C.3     
  15 H15            3.4542     1.2939     0.5186 H       
  16 H16            2.0257     0.0722    -1.6488 H       
  17 H17            3.1457    -0.7937    -0.5701 H       
  18 H18           -1.2444    -1.8272     0.1632 H       
  19 H19           -3.3484    -0.5850     0.3747 H       
  20 H20           -1.3474     3.0526     0.3210 H       
  21 H21            1.8487    -2.6748    -0.4755 H       
  22 H22            0.1784    -2.6260     0.1376 H       
  23 H23            0.2164    -3.0062    -2.3124 H       
  24 H24           -0.5424    -1.4446    -1.9199 H       
  25 H25            1.1280    -1.4933    -2.5330 H       
@<TRIPOS>BOND
   1    1    2 ar
   2    1    3 1
   3    1   12 ar
   4    2    9 ar
   5    2    6 1
   6    3    4 am
   7    3    7 2
   8    3    8 2
   9    4    5 1
  10    4   15 1
  11    5    6 1
  12    5   16 1
  13    5   17 1
  14    6   13 1
  15    9   10 ar
  16    9   18 1
  17   10   11 ar
  18   10   19 1
  19   11   12 ar
  20   12   20 1
  21   13   14 1
  22   13   21 1
  23   13   22 1
  24   14   23 1
  25   14   24 1
  26   14   25 1

#	End of record

