#	Name: ASD01917983
#	Creating user name:	WinNT
#	Creation time:	15. 06. 2019 20:10

#	Modifying user name:	WinNT
#	Modification time:	15. 06. 2019 20:10

#	Program:	/corina/corina34_cracker 3.40 0067  02.08.2006

@<TRIPOS>MOLECULE
ASD01917983
  43   46    0    0    0
SMALL
NO_CHARGES


@<TRIPOS>ATOM
   1 N1             4.8189    -0.4147    -2.1418 N.ar    
   2 C2             5.2862     0.2838    -3.1582 C.ar    
   3 C3             5.1752     1.6613    -3.1834 C.ar    
   4 C4             4.5630     2.3102    -2.1230 C.ar    
   5 C5             4.0811     1.5426    -1.0675 C.ar    
   6 C6             4.2302     0.1637    -1.1141 C.ar    
   7 O7             3.4739     2.1347    -0.0057 O.3     
   8 C8             3.4563     3.4938     0.0436 C.2     
   9 N9             2.2080     5.5081    -0.0225 N.pl3   
  10 C10            2.2743     4.1521    -0.0661 C.2     
  11 C11            4.6568     4.1939     0.2124 C.2     
  12 C12            4.6307     5.5833     0.2618 C.2     
  13 C13            3.3391     6.2578     0.1342 C.2     
  14 C14            5.8717     6.3559     0.4387 C.2     
  15 N15            5.8267     7.7022     0.4843 N.am    
  16 C16            6.9835     8.4290     0.7569 C.ar    
  17 N17            8.1436     7.7999     0.8632 N.ar    
  18 C18            6.9100     9.8089     0.9092 C.ar    
  19 C19            8.0669    10.5187     1.1794 C.ar    
  20 C20            9.2618     9.8210     1.2883 C.ar    
  21 C21            9.2621     8.4501     1.1199 C.ar    
  22 O22            6.9374     5.7792     0.5437 O.2     
  23 N23            1.1462     6.4204    -0.1081 N.2     
  24 C24            1.6627     7.6227    -0.0130 C.2     
  25 N25            2.9777     7.5312     0.1395 N.2     
  26 C26           10.5571     7.6874     1.2311 C.3     
  27 C27           10.4088     6.5804     2.2769 C.3     
  28 H28            5.7623    -0.2274    -3.9819 H       
  29 H29            5.5613     2.2253    -4.0196 H       
  30 H30            4.4628     3.3855    -2.1160 H       
  31 H31            3.8598    -0.4418    -0.3001 H       
  32 H32            1.3644     3.5840    -0.1915 H       
  33 H33            5.5919     3.6613     0.3036 H       
  34 H34            4.9888     8.1650     0.3272 H       
  35 H35            5.9631    10.3200     0.8176 H       
  36 H36            8.0406    11.5914     1.3024 H       
  37 H37           10.1825    10.3451     1.4984 H       
  38 H38            1.1021     8.5453    -0.0439 H       
  39 H39           10.8021     7.2447     0.2657 H       
  40 H40           11.3544     8.3670     1.5320 H       
  41 H41           11.3454     6.0288     2.3573 H       
  42 H42           10.1638     7.0232     3.2423 H       
  43 H43            9.6115     5.9008     1.9760 H       
@<TRIPOS>BOND
   1    1    2 ar
   2    1    6 ar
   3    2    3 ar
   4    2   28 1
   5    3    4 ar
   6    3   29 1
   7    4    5 ar
   8    4   30 1
   9    5    6 ar
  10    5    7 1
  11    6   31 1
  12    7    8 1
  13    8   11 1
  14    8   10 2
  15    9   10 1
  16    9   23 1
  17    9   13 1
  18   10   32 1
  19   11   12 2
  20   11   33 1
  21   12   13 1
  22   12   14 1
  23   13   25 2
  24   14   15 am
  25   14   22 2
  26   15   16 1
  27   15   34 1
  28   16   18 ar
  29   16   17 ar
  30   17   21 ar
  31   18   19 ar
  32   18   35 1
  33   19   20 ar
  34   19   36 1
  35   20   21 ar
  36   20   37 1
  37   21   26 1
  38   23   24 2
  39   24   25 1
  40   24   38 1
  41   26   27 1
  42   26   39 1
  43   26   40 1
  44   27   41 1
  45   27   42 1
  46   27   43 1

#	End of record

