#	Name: ASD02560118
#	Creating user name:	WinNT
#	Creation time:	15. 06. 2019 20:24

#	Modifying user name:	WinNT
#	Modification time:	15. 06. 2019 20:24

#	Program:	/corina/corina34_cracker 3.40 0067  02.08.2006

@<TRIPOS>MOLECULE
ASD02560118
  57   61    0    0    0
SMALL
NO_CHARGES


@<TRIPOS>ATOM
   1 N1             0.0405     1.3088     0.0596 N.2     
   2 N2            -0.0028     0.0762    -0.0022 N.2     
   3 C3             1.4272     1.7925     0.0597 C.3     
   4 N4             2.2450     0.5966     0.3845 N.3     
   5 C5             1.3467    -0.5008    -0.0554 C.3     
   6 S6             1.4747    -1.9135     1.0753 S.3     
   7 C7             0.9681    -1.2086     2.6681 C.3     
   8 C8             1.0223    -2.2765     3.7301 C.2     
   9 O9             1.3686    -3.4022     3.4409 O.2     
  10 N10            0.6860    -1.9805     5.0012 N.am    
  11 Br11           1.9090     2.4903    -1.7140 Br      
  12 C12            3.4329     0.5914    -0.3434 C.ar    
  13 C13            0.6578    -2.9859     5.9672 C.ar    
  14 C14           -0.1648    -2.8542     7.0832 C.ar    
  15 C15           -0.1948    -3.8455     8.0389 C.ar    
  16 C16            0.6020    -4.9845     7.8871 C.ar    
  17 C17            1.4261    -5.1127     6.7655 C.ar    
  18 C18            1.4470    -4.1205     5.8110 C.ar    
  19 Cl19          -1.1529    -1.4391     7.2702 Cl      
  20 C20            0.5732    -6.0479     8.9083 C.2     
  21 O21           -0.1435    -5.9350     9.8830 O.2     
  22 O22            1.3416    -7.1450     8.7606 O.3     
  23 C23            3.4092     0.4193    -1.7441 C.ar    
  24 C24            4.6422     0.7602     0.2973 C.ar    
  25 C25            5.8341     0.7571    -0.4205 C.ar    
  26 C26            5.8407     0.5884    -1.7718 C.ar    
  27 C27            4.6296     0.4179    -2.4636 C.ar    
  28 C28            4.6063     0.2411    -3.8580 C.ar    
  29 C29            3.4153     0.0784    -4.4964 C.ar    
  30 C30            2.2153     0.0842    -3.7882 C.ar    
  31 C31            2.2003     0.2492    -2.4367 C.ar    
  32 C32            7.1457     0.5895    -2.5254 C.3     
  33 C33            8.0081     1.8507    -2.4427 C.3     
  34 C34            8.4362     0.5814    -1.7034 C.3     
  35 C35            4.6731     0.9506     1.7919 C.3     
  36 H36            1.5608     2.5617     0.8204 H       
  37 H37            1.5896    -0.8051    -1.0734 H       
  38 H38            1.6421    -0.3950     2.9362 H       
  39 H39           -0.0495    -0.8262     2.5890 H       
  40 H40            0.4635    -1.0681     5.2441 H       
  41 H41           -0.8325    -3.7430     8.9045 H       
  42 H42            2.0430    -5.9911     6.6455 H       
  43 H43            2.0837    -4.2193     4.9443 H       
  44 H44            1.2888    -7.8148     9.4559 H       
  45 H45            6.7695     0.8911     0.1025 H       
  46 H46            5.5286     0.2349    -4.4198 H       
  47 H47            3.4002    -0.0569    -5.5678 H       
  48 H48            1.2837    -0.0470    -4.3186 H       
  49 H49            1.2628     0.2516    -1.9006 H       
  50 H50            7.1452     0.0411    -3.4673 H       
  51 H51            8.5752     2.1316    -3.3302 H       
  52 H52            7.6315     2.6795    -1.8433 H       
  53 H53            8.3412     0.5752    -0.6176 H       
  54 H54            9.2849     0.0273    -2.1045 H       
  55 H55            4.8432    -0.0105     2.2772 H       
  56 H56            5.4779     1.6374     2.0541 H       
  57 H57            3.7208     1.3626     2.1255 H       
@<TRIPOS>BOND
   1    1    2 2
   2    1    3 1
   3    2    5 1
   4    3    4 1
   5    3   11 1
   6    3   36 1
   7    4    5 1
   8    4   12 1
   9    5    6 1
  10    5   37 1
  11    6    7 1
  12    7    8 1
  13    7   38 1
  14    7   39 1
  15    8    9 2
  16    8   10 am
  17   10   13 1
  18   10   40 1
  19   12   23 ar
  20   12   24 ar
  21   13   14 ar
  22   13   18 ar
  23   14   15 ar
  24   14   19 1
  25   15   16 ar
  26   15   41 1
  27   16   17 ar
  28   16   20 1
  29   17   18 ar
  30   17   42 1
  31   18   43 1
  32   20   21 2
  33   20   22 1
  34   22   44 1
  35   23   27 ar
  36   23   31 ar
  37   24   25 ar
  38   24   35 1
  39   25   26 ar
  40   25   45 1
  41   26   27 ar
  42   26   32 1
  43   27   28 ar
  44   28   29 ar
  45   28   46 1
  46   29   30 ar
  47   29   47 1
  48   30   31 ar
  49   30   48 1
  50   31   49 1
  51   32   33 1
  52   32   34 1
  53   32   50 1
  54   33   34 1
  55   33   51 1
  56   33   52 1
  57   34   53 1
  58   34   54 1
  59   35   55 1
  60   35   56 1
  61   35   57 1

#	End of record

