#	Name: ASD01884584
#	Creating user name:	WinNT
#	Creation time:	15. 06. 2019 19:48

#	Modifying user name:	WinNT
#	Modification time:	15. 06. 2019 19:48

#	Program:	/corina/corina34_cracker 3.40 0067  02.08.2006

@<TRIPOS>MOLECULE
ASD01884584
  62   64    0    0    0
SMALL
NO_CHARGES


@<TRIPOS>ATOM
   1 C1            -0.0168     1.3884     0.0097 C.2     
   2 C2             0.0021    -0.0041     0.0020 C.2     
   3 C3            -1.2095    -0.6965     0.0104 C.2     
   4 C4            -2.3831    -0.0157     0.0252 C.2     
   5 N5            -2.4093     1.3392     0.0327 N.am    
   6 C6            -1.2693     2.0558     0.0312 C.2     
   7 O7            -1.3129     3.2741     0.0383 O.2     
   8 C8            -3.6983     2.0352     0.0483 C.3     
   9 C9            -4.1273     2.2662     1.4744 C.ar    
  10 C10           -3.7545     3.4263     2.1279 C.ar    
  11 C11           -4.1464     3.6404     3.4352 C.ar    
  12 C12           -4.9147     2.6903     4.0923 C.ar    
  13 C13           -5.2875     1.5272     3.4343 C.ar    
  14 C14           -4.8977     1.3204     2.1252 C.ar    
  15 O15           -5.3012     2.8985     5.3784 O.3     
  16 C16            1.2059     2.1337     0.0020 C.1     
  17 N17            2.1759     2.7249    -0.0041 N.1     
  18 C18            1.3105    -0.7515    -0.0155 C.3     
  19 N19            1.6901    -1.1066     1.3585 N.3     
  20 C20            2.8290    -2.0352     1.3670 C.3     
  21 C21            3.2431    -2.3172     2.8131 C.3     
  22 N22            2.1012    -2.8822     3.5456 N.3     
  23 C23            0.9623    -1.9536     3.5371 C.3     
  24 C24            0.5482    -1.6716     2.0910 C.3     
  25 C25            2.4622    -3.2199     4.8523 C.ar    
  26 C26            3.7591    -3.0084     5.3022 C.ar    
  27 N27            4.1032    -3.3259     6.5345 N.ar    
  28 C28            3.2416    -3.8515     7.3829 C.ar    
  29 C29            1.9324    -4.0923     7.0087 C.ar    
  30 C30            1.5252    -3.7684     5.7252 C.ar    
  31 C31           -6.0908     1.8776     5.9919 C.3     
  32 F32           -5.3726     0.6771     6.0047 F       
  33 F33           -6.3981     2.2513     7.3045 F       
  34 F34           -7.2748     1.7050     5.2669 F       
  35 H35           -1.2130    -1.7765     0.0046 H       
  36 H36           -3.3137    -0.5638     0.0308 H       
  37 H37           -3.5999     2.9937    -0.4613 H       
  38 H38           -4.4456     1.4275    -0.4619 H       
  39 H39           -3.1561     4.1654     1.6161 H       
  40 H40           -3.8547     4.5465     3.9453 H       
  41 H41           -5.8856     0.7861     3.9437 H       
  42 H42           -5.1876     0.4151     1.6125 H       
  43 H43            1.2023    -1.6595    -0.6087 H       
  44 H44            2.0835    -0.1207    -0.4544 H       
  45 H45            2.5411    -2.9683     0.8826 H       
  46 H46            3.6659    -1.5892     0.8295 H       
  47 H47            4.0692    -3.0283     2.8228 H       
  48 H48            3.5569    -1.3883     3.2893 H       
  49 H49            0.1254    -2.3996     4.0746 H       
  50 H50            1.2502    -1.0205     4.0215 H       
  51 H51           -0.2779    -0.9605     2.0813 H       
  52 H52            0.2344    -2.6005     1.6148 H       
  53 H53            4.4930    -2.5800     4.6358 H       
  54 H54            3.5630    -4.0978     8.3841 H       
  55 H55            1.2342    -4.5238     7.7107 H       
  56 H56            0.5088    -3.9456     5.4059 H       
  57 C57           10.0202    11.3585    14.2672 C.3     
  58 O58           10.0396     9.9297    14.2593 O.3     
  59 H59           11.0428    11.7358    14.2595 H       
  60 H60            9.4930    11.7196    13.3841 H       
  61 H61            9.5100    11.7100    15.1640 H       
  62 H62           10.4792     9.5465    13.4880 H       
@<TRIPOS>BOND
   1    1    2 2
   2    1   16 1
   3    1    6 1
   4    2    3 1
   5    2   18 1
   6    3    4 2
   7    3   35 1
   8    4    5 1
   9    4   36 1
  10    5    8 1
  11    5    6 am
  12    6    7 2
  13    8    9 1
  14    8   37 1
  15    8   38 1
  16    9   10 ar
  17    9   14 ar
  18   10   11 ar
  19   10   39 1
  20   11   12 ar
  21   11   40 1
  22   12   13 ar
  23   12   15 1
  24   13   14 ar
  25   13   41 1
  26   14   42 1
  27   15   31 1
  28   16   17 3
  29   18   19 1
  30   18   43 1
  31   18   44 1
  32   19   20 1
  33   19   24 1
  34   20   21 1
  35   20   45 1
  36   20   46 1
  37   21   22 1
  38   21   47 1
  39   21   48 1
  40   22   23 1
  41   22   25 1
  42   23   24 1
  43   23   49 1
  44   23   50 1
  45   24   51 1
  46   24   52 1
  47   25   26 ar
  48   25   30 ar
  49   26   27 ar
  50   26   53 1
  51   27   28 ar
  52   28   29 ar
  53   28   54 1
  54   29   30 ar
  55   29   55 1
  56   30   56 1
  57   31   32 1
  58   31   33 1
  59   31   34 1
  60   57   58 1
  61   57   59 1
  62   57   60 1
  63   57   61 1
  64   58   62 1

#	End of record

