#	Name: ASD01410411
#	Creating user name:	WinNT
#	Creation time:	15. 06. 2019 19:17

#	Modifying user name:	WinNT
#	Modification time:	15. 06. 2019 19:17

#	Program:	/corina/corina34_cracker 3.40 0067  02.08.2006

@<TRIPOS>MOLECULE
ASD01410411
  36   38    0    0    0
SMALL
NO_CHARGES


@<TRIPOS>ATOM
   1 S1            -0.0170     1.7585    -0.0181 S.3     
   2 C2            -0.0013     0.0122     0.2832 C.2     
   3 N3             1.2766    -0.3393     0.4662 N.am    
   4 C4             2.2222     0.5830     0.3986 C.2     
   5 C5             1.7430     1.9416     0.1194 C.2     
   6 S6            -1.3614    -1.0265     0.3315 S.2     
   7 O7             3.4010     0.3245     0.5565 O.2     
   8 N8             1.6107    -1.6744     0.7279 N.am    
   9 S9             1.9437    -2.7055    -0.5244 S.o2    
  10 O10            2.3884    -3.9204     0.0634 O.2     
  11 O11            0.8357    -2.6309    -1.4110 O.2     
  12 C12            3.3233    -2.0399    -1.3953 C.ar    
  13 C13            4.6082    -2.3964    -1.0307 C.ar    
  14 C14            5.6905    -1.8742    -1.7138 C.ar    
  15 C15            5.4880    -0.9959    -2.7619 C.ar    
  16 C16            4.2031    -0.6400    -3.1270 C.ar    
  17 C17            3.1206    -1.1656    -2.4466 C.ar    
  18 C18            2.4768     3.0768    -0.0051 C.2     
  19 C19            1.8488     6.7086    -0.7062 C.ar    
  20 C20            0.5343     6.8366    -0.2856 C.ar    
  21 C21            2.4887     5.4885    -0.6188 C.ar    
  22 C22            1.8045     4.3786    -0.1019 C.ar    
  23 C23            0.4773     4.5182     0.3206 C.ar    
  24 C24           -0.1474     5.7423     0.2265 C.ar    
  25 F25            3.7698     5.3641    -1.0293 F       
  26 F26           -0.0860     8.0335    -0.3739 F       
  27 H27            1.6470    -1.9949     1.6428 H       
  28 H28            4.7664    -3.0827    -0.2119 H       
  29 H29            6.6944    -2.1522    -1.4286 H       
  30 H30            6.3336    -0.5873    -3.2951 H       
  31 H31            4.0449     0.0465    -3.9456 H       
  32 H32            2.1166    -0.8905    -2.7343 H       
  33 H33            3.5551     3.0225    -0.0328 H       
  34 H34            2.3719     7.5640    -1.1076 H       
  35 H35           -0.0557     3.6679     0.7196 H       
  36 H36           -1.1713     5.8505     0.5527 H       
@<TRIPOS>BOND
   1    1    2 1
   2    1    5 1
   3    2    3 am
   4    2    6 2
   5    3    4 am
   6    3    8 1
   7    4    5 1
   8    4    7 2
   9    5   18 2
  10    8    9 am
  11    8   27 1
  12    9   10 2
  13    9   11 2
  14    9   12 1
  15   12   13 ar
  16   12   17 ar
  17   13   14 ar
  18   13   28 1
  19   14   15 ar
  20   14   29 1
  21   15   16 ar
  22   15   30 1
  23   16   17 ar
  24   16   31 1
  25   17   32 1
  26   18   22 1
  27   18   33 1
  28   19   20 ar
  29   19   21 ar
  30   19   34 1
  31   20   24 ar
  32   20   26 1
  33   21   22 ar
  34   21   25 1
  35   22   23 ar
  36   23   24 ar
  37   23   35 1
  38   24   36 1

#	End of record

