#	Name: ASD01814587
#	Creating user name:	WinNT
#	Creation time:	15. 06. 2019 19:32

#	Modifying user name:	WinNT
#	Modification time:	15. 06. 2019 19:32

#	Program:	/corina/corina34_cracker 3.40 0067  02.08.2006

@<TRIPOS>MOLECULE
ASD01814587
  65   68    0    0    0
SMALL
NO_CHARGES


@<TRIPOS>ATOM
   1 C1            -0.0173     1.4248     0.0099 C.3     
   2 O2             0.0021    -0.0041     0.0020 O.3     
   3 C3            -1.1981    -0.6363     0.0101 C.ar    
   4 C4            -1.8055    -0.9623     1.2133 C.ar    
   5 C5            -1.1315    -0.6137     2.5153 C.3     
   6 C6            -3.0275    -1.6056     1.2199 C.ar    
   7 C7            -3.6824    -1.9560     2.5311 C.3     
   8 C8            -3.6549    -1.9302     0.0286 C.ar    
   9 C9            -4.9883    -2.6321     0.0500 C.3     
  10 C10           -6.0902    -1.6133     0.1869 C.ar    
  11 C11           -6.5325    -1.2244     1.4434 C.ar    
  12 C12           -7.5467    -0.2860     1.5257 C.ar    
  13 C13           -8.0857     0.2330     0.3507 C.ar    
  14 N14           -7.6344    -0.1654    -0.8317 N.ar    
  15 C15           -6.6663    -1.0528    -0.9381 C.ar    
  16 C16           -9.1735     1.2391     0.4220 C.2     
  17 C17           -9.8157     1.8446    -0.6760 C.2     
  18 C18          -10.7442     2.6985    -0.1932 C.2     
  19 N19          -10.7001     2.6436     1.1555 N.pl3   
  20 C20          -11.5423     3.4124     2.0751 C.3     
  21 N21           -9.7133     1.7197     1.5224 N.2     
  22 C22           -3.0656    -1.6137    -1.1765 C.ar    
  23 C23           -1.8326    -0.9579    -1.1978 C.ar    
  24 C24           -1.1991    -0.6103    -2.4841 C.2     
  25 O25           -0.1237    -0.0433    -2.4986 O.2     
  26 N26           -1.8126    -0.9214    -3.6432 N.am    
  27 C27           -1.1836    -0.5763    -4.9205 C.3     
  28 H28           -0.6514     0.3696    -4.8195 H       
  29 C29           -0.1973    -1.6766    -5.3171 C.3     
  30 C30            0.4596    -1.3162    -6.6510 C.3     
  31 C31           -0.6169    -1.1830    -7.7301 C.3     
  32 C32           -1.6032    -0.0826    -7.3335 C.3     
  33 C33           -2.2601    -0.4431    -5.9995 C.3     
  34 H34           -2.7923    -1.3889    -6.1005 H       
  35 O35           -3.1813     0.5846    -5.6291 O.3     
  36 H36            1.0053     1.8021     0.0021 H       
  37 H37           -0.5445     1.7859    -0.8732 H       
  38 H38           -0.5275     1.7763     0.9067 H       
  39 H39           -1.4480     0.3796     2.8337 H       
  40 H40           -1.4089    -1.3444     3.2750 H       
  41 H41           -0.0501    -0.6241     2.3788 H       
  42 H42           -4.3190    -1.1311     2.8512 H       
  43 H43           -4.2870    -2.8543     2.4067 H       
  44 H44           -2.9150    -2.1359     3.2839 H       
  45 H45           -5.1210    -3.1884    -0.8779 H       
  46 H46           -5.0230    -3.3205     0.8944 H       
  47 H47           -6.0954    -1.6448     2.3370 H       
  48 H48           -7.9152     0.0390     2.4875 H       
  49 H49           -6.3214    -1.3500    -1.9175 H       
  50 H50           -9.6029     1.6595    -1.7185 H       
  51 H51          -11.4056     3.3165    -0.7822 H       
  52 H52          -12.4488     2.8485     2.2953 H       
  53 H53          -10.9958     3.5973     2.9999 H       
  54 H54          -11.8091     4.3636     1.6144 H       
  55 H55           -3.5585    -1.8687    -2.1030 H       
  56 H56           -2.6705    -1.3738    -3.6316 H       
  57 H57            0.5696    -1.7715    -4.5483 H       
  58 H58           -0.7295    -2.6225    -5.4180 H       
  59 H59            0.9918    -0.3703    -6.5501 H       
  60 H60            1.1622    -2.1001    -6.9336 H       
  61 H61           -0.1489    -0.9262    -8.6804 H       
  62 H62           -1.1491    -2.1288    -7.8310 H       
  63 H63           -1.0710     0.8632    -7.2325 H       
  64 H64           -2.3701     0.0122    -8.1022 H       
  65 H65           -3.8927     0.7244    -6.2689 H       
@<TRIPOS>BOND
   1    1    2 1
   2    1   36 1
   3    1   37 1
   4    1   38 1
   5    2    3 1
   6    3   23 ar
   7    3    4 ar
   8    4    5 1
   9    4    6 ar
  10    5   39 1
  11    5   40 1
  12    5   41 1
  13    6    7 1
  14    6    8 ar
  15    7   42 1
  16    7   43 1
  17    7   44 1
  18    8    9 1
  19    8   22 ar
  20    9   10 1
  21    9   45 1
  22    9   46 1
  23   10   15 ar
  24   10   11 ar
  25   11   12 ar
  26   11   47 1
  27   12   13 ar
  28   12   48 1
  29   13   14 ar
  30   13   16 1
  31   14   15 ar
  32   15   49 1
  33   16   21 2
  34   16   17 1
  35   17   18 2
  36   17   50 1
  37   18   19 1
  38   18   51 1
  39   19   20 1
  40   19   21 1
  41   20   52 1
  42   20   53 1
  43   20   54 1
  44   22   23 ar
  45   22   55 1
  46   23   24 1
  47   24   25 2
  48   24   26 am
  49   26   27 1
  50   26   56 1
  51   27   28 1
  52   27   33 1
  53   27   29 1
  54   29   30 1
  55   29   57 1
  56   29   58 1
  57   30   31 1
  58   30   59 1
  59   30   60 1
  60   31   32 1
  61   31   61 1
  62   31   62 1
  63   32   33 1
  64   32   63 1
  65   32   64 1
  66   33   34 1
  67   33   35 1
  68   35   65 1

#	End of record

