#	Name: ASD01901596
#	Creating user name:	WinNT
#	Creation time:	15. 06. 2019 19:54

#	Modifying user name:	WinNT
#	Modification time:	15. 06. 2019 19:54

#	Program:	/corina/corina34_cracker 3.40 0067  02.08.2006

@<TRIPOS>MOLECULE
ASD01901596
  53   57    0    0    0
SMALL
NO_CHARGES


@<TRIPOS>ATOM
   1 C1            -0.0404     2.6727    -7.5736 C.3     
   2 S2             0.1632     2.3591    -5.7986 S.o2    
   3 O3             1.1424     3.2290    -5.2476 O.2     
   4 O4            -1.1018     2.1906    -5.1737 O.2     
   5 N5             0.8599     0.8588    -5.7212 N.am    
   6 C6             0.0270    -0.3502    -5.6547 C.3     
   7 C7             0.4361    -1.1597    -4.4179 C.3     
   8 N8             1.8985    -1.3061    -4.4152 N.am    
   9 C9             2.7314    -0.0971    -4.4818 C.3     
  10 C10            2.3222     0.7121    -5.7241 C.3     
  11 C11            2.4655    -2.5272    -4.3523 C.2     
  12 O12            1.7703    -3.5132    -4.2054 O.2     
  13 C13            3.9345    -2.6673    -4.4620 C.ar    
  14 N14            4.7091    -2.3588    -3.4360 N.ar    
  15 C15            6.0252    -2.4645    -3.4783 C.ar    
  16 C16            6.6809    -2.9031    -4.5934 C.ar    
  17 C17            5.9288    -3.2521    -5.7298 C.ar    
  18 C18            6.5303    -3.7101    -6.9090 C.ar    
  19 C19            5.7365    -4.0368    -7.9892 C.ar    
  20 N20            6.3275    -4.4936    -9.1670 N.pl3   
  21 C21            5.6725    -4.3213   -10.3904 C.2     
  22 N22            4.5619    -3.6605   -10.5833 N.2     
  23 N23            4.2085    -3.7022   -11.9360 N.pl3   
  24 H24            3.4243    -3.2850   -12.3256 H       
  25 C25            5.1469    -4.4263   -12.6228 C.ar    
  26 C26            5.3026    -4.7855   -13.9612 C.ar    
  27 C27            6.4020    -5.5449   -14.3102 C.ar    
  28 C28            7.3117    -5.9263   -13.3326 C.ar    
  29 N29            7.1501    -5.5799   -12.0758 N.ar    
  30 C30            6.1118    -4.8438   -11.6864 C.ar    
  31 C31            4.3430    -3.9147    -7.9149 C.ar    
  32 C32            3.7380    -3.4720    -6.7794 C.ar    
  33 C33            4.5147    -3.1368    -5.6619 C.ar    
  34 H34            0.9346     2.6512    -8.0605 H       
  35 H35           -0.6801     1.9041    -8.0073 H       
  36 H36           -0.4979     3.6512    -7.7196 H       
  37 H37           -1.0227    -0.0673    -5.5759 H       
  38 H38            0.1804    -0.9500    -6.5517 H       
  39 H39            0.1193    -0.6356    -3.5163 H       
  40 H40           -0.0300    -2.1444    -4.4546 H       
  41 H41            2.5780     0.5027    -3.5847 H       
  42 H42            3.7811    -0.3800    -4.5605 H       
  43 H43            2.6354     0.1862    -6.6260 H       
  44 H44            2.7887     1.6967    -5.6913 H       
  45 H45            6.6003    -2.1956    -2.6046 H       
  46 H46            7.7581    -2.9803    -4.6025 H       
  47 H47            7.6041    -3.8062    -6.9721 H       
  48 H48            7.1929    -4.9308    -9.1375 H       
  49 H49            4.5824    -4.4781   -14.7050 H       
  50 H50            6.5532    -5.8410   -15.3378 H       
  51 H51            8.1696    -6.5202   -13.6113 H       
  52 H52            3.7398    -4.1757    -8.7718 H       
  53 H53            2.6625    -3.3834    -6.7379 H       
@<TRIPOS>BOND
   1    1    2 1
   2    1   34 1
   3    1   35 1
   4    1   36 1
   5    2    3 2
   6    2    4 2
   7    2    5 am
   8    5   10 1
   9    5    6 1
  10    6    7 1
  11    6   37 1
  12    6   38 1
  13    7    8 1
  14    7   39 1
  15    7   40 1
  16    8    9 1
  17    8   11 am
  18    9   10 1
  19    9   41 1
  20    9   42 1
  21   10   43 1
  22   10   44 1
  23   11   12 2
  24   11   13 1
  25   13   33 ar
  26   13   14 ar
  27   14   15 ar
  28   15   16 ar
  29   15   45 1
  30   16   17 ar
  31   16   46 1
  32   17   33 ar
  33   17   18 ar
  34   18   19 ar
  35   18   47 1
  36   19   20 1
  37   19   31 ar
  38   20   21 1
  39   20   48 1
  40   21   30 1
  41   21   22 2
  42   22   23 1
  43   23   24 1
  44   23   25 1
  45   25   30 ar
  46   25   26 ar
  47   26   27 ar
  48   26   49 1
  49   27   28 ar
  50   27   50 1
  51   28   29 ar
  52   28   51 1
  53   29   30 ar
  54   31   32 ar
  55   31   52 1
  56   32   33 ar
  57   32   53 1

#	End of record

