#	Name: ASD06590020
#	Creating user name:	WinNT
#	Creation time:	15. 06. 2019 21:06

#	Modifying user name:	WinNT
#	Modification time:	15. 06. 2019 21:06

#	Program:	/corina/corina34_cracker 3.40 0067  02.08.2006

@<TRIPOS>MOLECULE
ASD06590020
 381  381    0    0    0
SMALL
NO_CHARGES


@<TRIPOS>ATOM
   1 C1            -3.1774    17.1028    10.8742 C.2     
   2 O2            -2.6271    17.5816     9.9053 O.2     
   3 N3            -1.2177    17.8201    12.1128 N.am    
   4 C4            -2.5643    17.2578    12.2421 C.3     
   5 C5            -3.4299    18.1960    13.0856 C.3     
   6 C6            -2.8169    18.3396    14.4801 C.3     
   7 O7            -3.4928    19.4785    12.4586 O.3     
   8 C8            -6.4435    16.8177     9.5798 C.2     
   9 O9            -6.8723    17.1173    10.6740 O.2     
  10 N10           -4.3400    16.4368    10.7284 N.am    
  11 C11           -5.0041    16.3997     9.4231 C.3     
  12 C12           -4.9443    14.9780     8.8607 C.3     
  13 C13           -3.5053    14.5739     8.6689 C.2     
  14 O14           -2.6146    15.3337     8.9855 O.2     
  15 N15           -3.2080    13.3680     8.1454 N.am    
  16 C16           -9.4733    16.6716     7.5397 C.2     
  17 O17           -8.9412    15.9774     6.6995 O.2     
  18 N18           -7.2542    16.8588     8.5039 N.am    
  19 C19           -8.6534    17.2652     8.6561 C.3     
  20 C20           -8.7498    18.7913     8.6040 C.3     
  21 C21          -13.0342    16.7532     6.5461 C.2     
  22 O22          -13.3620    17.4633     7.4731 O.2     
  23 N23          -10.7978    16.9122     7.4748 N.am    
  24 C24          -11.5949    16.3351     6.3895 C.3     
  25 C25          -16.2493    15.7329     5.1371 C.2     
  26 O26          -15.7645    14.7675     4.5858 O.2     
  27 N27          -13.9572    16.3381     5.6561 N.am    
  28 C28          -15.3564    16.7445     5.8083 C.3     
  29 C29          -15.5626    18.1155     5.1613 C.3     
  30 C30          -14.7509    19.1658     5.9223 C.3     
  31 C31          -14.9571    20.5368     5.2752 C.3     
  32 N32          -14.1799    21.5425     6.0039 N.pl3   
  33 C33          -14.2087    22.8571     5.6023 C.2     
  34 N34          -14.9275    23.2086     4.5734 N.2     
  35 N35          -13.4793    23.8008     6.2861 N.pl3   
  36 C36          -19.7525    15.5751     4.1048 C.2     
  37 O37          -19.9347    16.7495     4.3467 O.2     
  38 N38          -17.5864    15.9010     5.1494 N.am    
  39 C39          -18.4544    14.9176     4.4968 C.3     
  40 C40          -18.7375    13.7661     5.4637 C.3     
  41 O41          -19.4887    14.2532     6.5776 O.3     
  42 C42          -22.9572    15.5351     4.1059 C.2     
  43 O43          -22.7013    15.0412     5.1836 O.2     
  44 N44          -20.7110    14.8580     3.4855 N.am    
  45 C45          -21.9268    15.5202     3.0064 C.3     
  46 C46          -22.4798    14.7598     1.7993 C.3     
  47 C47          -21.4963    14.8416     0.6605 C.2     
  48 O48          -20.5077    15.5285     0.7641 O.2     
  49 O49          -21.7185    14.1513    -0.4691 O.3     
  50 C50          -26.5428    16.2014     4.3565 C.2     
  51 O51          -26.6749    16.2487     3.1519 O.2     
  52 N52          -24.1633    16.0972     3.8916 N.am    
  53 C53          -25.1650    16.1117     4.9605 C.3     
  54 C54          -24.9259    17.3206     5.8672 C.3     
  55 C55          -23.4852    17.2953     6.3816 C.3     
  56 O56          -25.1461    18.5226     5.1264 O.3     
  57 C57          -29.9143    16.9321     5.5658 C.2     
  58 O58          -29.5100    17.2652     6.6597 O.2     
  59 N59          -27.6281    16.2292     5.1551 N.am    
  60 C60          -28.9675    16.3165     4.5680 C.3     
  61 C61          -29.4555    14.9138     4.2002 C.3     
  62 C62          -28.5664    14.3377     3.0963 C.3     
  63 C63          -29.0544    12.9350     2.7285 C.3     
  64 N64          -28.2031    12.3833     1.6716 N.pl3   
  65 C65          -28.4510    11.1252     1.1757 C.2     
  66 N66          -29.4435    10.4233     1.6460 N.2     
  67 N67          -27.6521    10.6075     0.1838 N.pl3   
  68 C68          -33.5382    17.2657     5.9105 C.2     
  69 O69          -33.7516    16.5217     4.9768 O.2     
  70 N70          -31.2102    17.1126     5.2426 N.am    
  71 C71          -32.1306    17.7111     6.2127 C.3     
  72 C72          -32.0473    19.2360     6.1210 C.3     
  73 C73          -30.6526    19.6973     6.5485 C.3     
  74 C74          -30.5706    21.1993     6.4582 C.2     
  75 O75          -31.5330    21.8380     6.0883 O.2     
  76 N76          -29.4278    21.8329     6.7884 N.am    
  77 C77          -36.9028    18.2796     6.9178 C.2     
  78 O78          -36.4945    19.2694     7.4874 O.2     
  79 N79          -34.5600    17.6943     6.6779 N.am    
  80 C80          -35.9284    17.2614     6.3841 C.3     
  81 C81          -36.1891    15.9084     7.0492 C.3     
  82 C82          -35.2848    14.8475     6.4187 C.3     
  83 C83          -35.5416    13.5148     7.0738 C.2     
  84 O84          -36.3667    13.4227     7.9580 O.2     
  85 N85          -34.8544    12.4254     6.6772 N.am    
  86 C86          -40.5012    18.4150     7.5473 C.2     
  87 O87          -40.6411    17.2308     7.3256 O.2     
  88 N88          -38.2281    18.0902     6.7620 N.am    
  89 C89          -39.1754    19.0800     7.2808 C.3     
  90 C90          -39.3624    20.1958     6.2508 C.3     
  91 C91          -38.0639    20.9403     6.0754 C.ar    
  92 C92          -37.1545    20.5261     5.1199 C.ar    
  93 C93          -35.9633    21.2066     4.9575 C.ar    
  94 C94          -35.6802    22.3068     5.7538 C.ar    
  95 O95          -34.5092    22.9782     5.5956 O.3     
  96 C96          -36.5946    22.7207     6.7115 C.ar    
  97 C97          -37.7866    22.0399     6.8664 C.ar    
  98 C98          -43.9206    19.5173     8.2225 C.2     
  99 O99          -43.6543    20.6756     7.9812 O.2     
 100 N100         -41.5315    19.1361     8.0318 N.am    
 101 C101         -42.8204    18.4896     8.2909 C.3     
 102 C102         -42.8017    17.8543     9.6826 C.3     
 103 C103         -41.7692    16.7257     9.7141 C.3     
 104 C104         -41.7505    16.0903    11.1058 C.3     
 105 N105         -40.7618    15.0096    11.1361 N.pl3   
 106 C106         -40.5666    14.2887    12.2903 C.2     
 107 N107         -41.2611    14.5666    13.3577 N.2     
 108 N108         -39.6388    13.2745    12.3187 N.pl3   
 109 C109         -47.4419    19.6850     9.1897 C.2     
 110 O110         -47.3889    18.6250     9.7766 O.2     
 111 N111         -45.2004    19.1491     8.4296 N.am    
 112 C112         -46.2700    20.1480     8.3631 C.3     
 113 C113         -46.7107    20.3274     6.9090 C.3     
 114 C114         -45.5563    20.9156     6.0951 C.3     
 115 C115         -45.9970    21.0950     4.6410 C.3     
 116 C116         -44.8427    21.6831     3.8270 C.3     
 117 N117         -45.2658    21.8553     2.4309 N.3     
 118 C118         -50.9696    20.5683     9.3979 C.2     
 119 O119         -50.8826    21.5590     8.7038 O.2     
 120 N120         -48.5488    20.4490     9.2769 N.am    
 121 C121         -49.7283    19.9509     9.9889 C.3     
 122 C122         -49.6270    20.3262    11.4686 C.3     
 123 C123         -50.8363    19.7668    12.2207 C.3     
 124 C124         -50.7673    18.2384    12.2322 C.3     
 125 C125         -50.8285    20.2885    13.6589 C.3     
 126 C126         -54.5882    20.2375     9.7967 C.2     
 127 O127         -54.4743    19.6429    10.8476 O.2     
 128 N128         -52.1763    20.0194     9.6408 N.am    
 129 C129         -53.3676    20.5417     8.9668 C.3     
 130 C130         -53.5071    19.8818     7.5935 C.3     
 131 C131         -52.3286    20.2924     6.7084 C.3     
 132 C132         -52.4007    19.5363     5.3802 C.3     
 133 C133         -52.3908    21.7978     6.4423 C.3     
 134 C134         -58.2077    20.2852     9.2868 C.2     
 135 O135         -58.0935    20.4809     8.0953 O.2     
 136 N136         -55.8065    20.6261     9.3710 N.am    
 137 C137         -56.9931    20.3303    10.1777 C.3     
 138 C138         -57.1761    21.4213    11.2347 C.3     
 139 C139         -56.0013    21.3846    12.2142 C.3     
 140 C140         -56.1843    22.4755    13.2711 C.3     
 141 C141         -55.0095    22.4388    14.2506 C.3     
 142 N142         -55.1852    23.4863    15.2655 N.3     
 143 C143         -61.8325    20.2941     9.7605 C.2     
 144 O144         -61.7330    20.5289    10.9462 O.2     
 145 N145         -59.4210    20.0275     9.8141 N.am    
 146 C146         -60.6018    19.9837     8.9480 C.3     
 147 C147         -60.7336    18.5877     8.3357 C.3     
 148 O148         -60.9883    17.6358     9.3706 O.3     
 149 C149         -65.4465    19.9974     9.2985 C.2     
 150 O150         -65.3275    19.4126     8.2427 O.2     
 151 N151         -63.0436    20.3109     9.1694 N.am    
 152 C152         -64.2400    20.6127     9.9592 C.3     
 153 C153         -64.4242    22.1291    10.0467 C.3     
 154 C154         -63.2108    22.7511    10.7407 C.3     
 155 O155         -64.5493    22.6704     8.7301 O.3     
 156 C156         -68.3690    20.6584     8.2542 C.2     
 157 O157         -67.8050    21.7241     8.1763 O.2     
 158 N158         -66.6579    20.0969     9.8809 N.am    
 159 C159         -67.8474    19.5963     9.1875 C.3     
 160 C160         -68.9261    19.2450    10.2140 C.3     
 161 C161         -68.4132    18.1344    11.1330 C.3     
 162 C162         -69.4292    17.8867    12.2498 C.3     
 163 C163         -68.2221    16.8502    10.3234 C.3     
 164 O164         -69.4601    20.4205     7.5095 O.3     
 165 C165          -0.2985    17.5954    13.0726 C.2     
 166 O166          -0.5862    16.9276    14.0433 O.2     
 167 C167          16.8055    19.4727    20.4966 C.3     
 168 C168          15.3991    18.8854    20.6317 C.3     
 169 C169          14.5599    19.2871    19.4170 C.3     
 170 C170          13.1536    18.6999    19.5521 C.3     
 171 C171          12.3144    19.1015    18.3375 C.3     
 172 C172          10.9080    18.5143    18.4725 C.3     
 173 C173          10.0688    18.9160    17.2579 C.3     
 174 C174           8.6625    18.3287    17.3929 C.3     
 175 C175           7.8233    18.7304    16.1783 C.3     
 176 C176           6.4170    18.1432    16.3133 C.3     
 177 C177           5.5778    18.5449    15.0987 C.3     
 178 C178           4.1714    17.9576    15.2338 C.3     
 179 C179           3.3322    18.3593    14.0191 C.3     
 180 C180           1.9259    17.7721    14.1542 C.3     
 181 C181           1.0867    18.1738    12.9396 C.3     
 182 H182          -0.9876    18.3542    11.3365 H       
 183 H183          -2.5061    16.2832    12.7268 H       
 184 H184          -4.4353    17.7838    13.1714 H       
 185 H185          -1.8552    18.8470    14.4037 H       
 186 H186          -3.4861    18.9225    15.1129 H       
 187 H187          -2.6727    17.3515    14.9170 H       
 188 H188          -3.8718    19.4633    11.5691 H       
 189 H189          -4.7370    15.9822    11.4877 H       
 190 H190          -4.4998    17.0824     8.7393 H       
 191 H191          -5.4248    14.2912     9.5575 H       
 192 H192          -5.4621    14.9444     7.9022 H       
 193 H193          -3.9203    12.7603     7.8921 H       
 194 H194          -2.2817    13.1079     8.0219 H       
 195 H195          -6.9112    16.6192     7.6287 H       
 196 H196          -9.0328    16.9097     9.6142 H       
 197 H197          -9.7909    19.0937     8.7173 H       
 198 H198          -8.1568    19.2206     9.4115 H       
 199 H199          -8.3704    19.1468     7.6459 H       
 200 H200         -11.2234    17.4674     8.1468 H       
 201 H201         -11.5262    15.2479     6.4266 H       
 202 H202         -11.2154    16.6906     5.4314 H       
 203 H203         -13.6950    15.7702     4.9147 H       
 204 H204         -15.6049    16.8018     6.8681 H       
 205 H205         -15.2304    18.0813     4.1237 H       
 206 H206         -16.6199    18.3783     5.1958 H       
 207 H207         -15.0831    19.2001     6.9598 H       
 208 H208         -13.6936    18.9030     5.8877 H       
 209 H209         -14.6249    20.5026     4.2377 H       
 210 H210         -16.0144    20.7996     5.3098 H       
 211 H211         -13.6450    21.2809     6.7696 H       
 212 H212         -14.9478    24.1361     4.2901 H       
 213 H213         -12.9445    23.5392     7.0518 H       
 214 H214         -13.4997    24.7283     6.0028 H       
 215 H215         -17.9742    16.6731     5.5903 H       
 216 H216         -17.9595    14.5307     3.6060 H       
 217 H217         -19.3089    12.9928     4.9504 H       
 218 H218         -17.7948    13.3476     5.8163 H       
 219 H219         -19.7046    13.5756     7.2328 H       
 220 H220         -20.5958    13.9035     3.3569 H       
 221 H221         -21.6921    16.5438     2.7145 H       
 222 H222         -22.6375    13.7155     2.0689 H       
 223 H223         -23.4274    15.2033     1.4936 H       
 224 H224         -21.0595    14.2353    -1.1718 H       
 225 H225         -24.3680    16.4923     3.0297 H       
 226 H226         -25.0842    15.1963     5.5466 H       
 227 H227         -25.6140    17.2831     6.7118 H       
 228 H228         -22.7971    17.3328     5.5371 H       
 229 H229         -23.3149    18.1566     7.0276 H       
 230 H230         -23.3172    16.3785     6.9467 H       
 231 H231         -25.0122    19.3311     5.6398 H       
 232 H232         -27.5225    16.1915     6.1186 H       
 233 H233         -28.9316    16.9354     3.6715 H       
 234 H234         -29.4071    14.2703     5.0786 H       
 235 H235         -30.4849    14.9685     3.8461 H       
 236 H236         -28.6148    14.9812     2.2179 H       
 237 H237         -27.5370    14.2830     3.4504 H       
 238 H238         -29.0060    12.2915     3.6070 H       
 239 H239         -30.0838    12.9896     2.3744 H       
 240 H240         -27.4645    12.9057     1.3216 H       
 241 H241         -29.6184     9.5356     1.2962 H       
 242 H242         -26.9135    11.1299    -0.1662 H       
 243 H243         -27.8270     9.7199    -0.1660 H       
 244 H244         -31.5335    16.8462     4.3678 H       
 245 H245         -31.8565    17.3920     7.2183 H       
 246 H246         -32.2346    19.5490     5.0938 H       
 247 H247         -32.7945    19.6809     6.7783 H       
 248 H248         -30.4653    19.3843     7.5757 H       
 249 H249         -29.9054    19.2525     5.8912 H       
 250 H250         -28.6581    21.3221     7.0842 H       
 251 H251         -29.3750    22.7997     6.7303 H       
 252 H252         -34.3893    18.2894     7.4246 H       
 253 H253         -36.0559    17.1667     5.3058 H       
 254 H254         -35.9756    15.9806     8.1157 H       
 255 H255         -37.2326    15.6281     6.9058 H       
 256 H256         -35.4983    14.7752     5.3523 H       
 257 H257         -34.2412    15.1277     6.5622 H       
 258 H258         -34.1945    12.4990     5.9701 H       
 259 H259         -35.0197    11.5676     7.0989 H       
 260 H260         -38.5547    17.2986     6.3065 H       
 261 H261         -38.7881    19.5026     8.2079 H       
 262 H262         -39.6647    19.7630     5.2971 H       
 263 H263         -40.1324    20.8850     6.5974 H       
 264 H264         -37.3753    19.6695     4.5002 H       
 265 H265         -35.2529    20.8822     4.2115 H       
 266 H266         -34.5540    23.7015     4.9554 H       
 267 H267         -36.3763    23.5766     7.3329 H       
 268 H268         -38.5007    22.3644     7.6088 H       
 269 H269         -41.4197    20.0832     8.2091 H       
 270 H270         -42.9969    17.7180     7.5415 H       
 271 H271         -42.5376    18.6092    10.4231 H       
 272 H272         -43.7882    17.4508     9.9110 H       
 273 H273         -42.0333    15.9707     8.9736 H       
 274 H274         -40.7827    17.1292     9.4857 H       
 275 H275         -41.4863    16.8452    11.8464 H       
 276 H276         -42.7369    15.6868    11.3343 H       
 277 H277         -40.2450    14.8028    10.3417 H       
 278 H278         -41.1233    14.0579    14.1720 H       
 279 H279         -39.1219    13.0677    11.5243 H       
 280 H280         -39.5010    12.7658    13.1330 H       
 281 H281         -45.4134    18.2226     8.6225 H       
 282 H282         -45.9041    21.0984     8.7518 H       
 283 H283         -46.9928    19.3603     6.4929 H       
 284 H284         -47.5648    21.0034     6.8690 H       
 285 H285         -45.2741    21.8827     6.5112 H       
 286 H286         -44.7021    20.2396     6.1351 H       
 287 H287         -46.2792    20.1278     4.2249 H       
 288 H288         -46.8512    21.7709     4.6009 H       
 289 H289         -44.5605    22.6502     4.2431 H       
 290 H290         -43.9885    21.0072     3.8671 H       
 291 H291         -44.5202    22.2428     1.8723 H       
 292 H292         -45.5935    20.9838     2.0422 H       
 293 H293         -48.5645    21.3285     8.8682 H       
 294 H294         -49.7803    18.8665     9.8918 H       
 295 H295         -48.7125    19.9069    11.8880 H       
 296 H296         -49.6078    21.4116    11.5677 H       
 297 H297         -51.7525    20.0854    11.7236 H       
 298 H298         -51.5700    17.8431    12.8547 H       
 299 H299         -50.8774    17.8621    11.2151 H       
 300 H300         -49.8054    17.9211    12.6349 H       
 301 H301         -50.8776    21.3774    13.6507 H       
 302 H302         -51.6900    19.8899    14.1947 H       
 303 H303         -49.9122    19.9699    14.1561 H       
 304 H304         -52.2561    19.2786    10.2619 H       
 305 H305         -53.2717    21.6205     8.8436 H       
 306 H306         -53.5138    18.7981     7.7101 H       
 307 H307         -54.4395    20.2030     7.1291 H       
 308 H308         -51.3934    20.0510     7.2135 H       
 309 H309         -53.3359    19.7777     4.8750 H       
 310 H310         -51.5611    19.8288     4.7496 H       
 311 H311         -52.3565    18.4638     5.5697 H       
 312 H312         -52.3394    22.3364     7.3885 H       
 313 H313         -51.5512    22.0902     5.8117 H       
 314 H314         -53.3260    22.0391     5.9371 H       
 315 H315         -55.8977    21.1016     8.5304 H       
 316 H316         -56.8670    19.3657    10.6692 H       
 317 H317         -57.2132    22.3960    10.7481 H       
 318 H318         -58.1063    21.2499    11.7764 H       
 319 H319         -55.9642    20.4099    12.7007 H       
 320 H320         -55.0711    21.5559    11.6724 H       
 321 H321         -56.2214    23.4502    12.7846 H       
 322 H322         -57.1145    22.3042    13.8129 H       
 323 H323         -54.9724    21.4641    14.7372 H       
 324 H324         -54.0793    22.6102    13.7089 H       
 325 H325         -54.4215    23.4827    15.9249 H       
 326 H326         -55.2871    24.3932    14.8352 H       
 327 H327         -59.5124    19.8710    10.7670 H       
 328 H328         -60.4962    20.7210     8.1522 H       
 329 H329         -61.5588    18.5798     7.6236 H       
 330 H330         -59.8081    18.3273     7.8222 H       
 331 H331         -61.0835    16.7270     9.0543 H       
 332 H332         -63.1231    20.1232     8.2211 H       
 333 H333         -64.1261    20.2021    10.9625 H       
 334 H334         -65.3245    22.3533    10.6188 H       
 335 H335         -62.3272    22.6173    10.1166 H       
 336 H336         -63.3876    23.8153    10.8969 H       
 337 H337         -63.0532    22.2639    11.7029 H       
 338 H338         -65.2995    22.3202     8.2305 H       
 339 H339         -66.7421    20.4999    10.7592 H       
 340 H340         -67.5866    18.7060     8.6152 H       
 341 H341         -69.1635    20.1275    10.8081 H       
 342 H342         -69.8226    18.9034     9.6966 H       
 343 H343         -67.4602    18.4344    11.5687 H       
 344 H344         -70.3547    17.5031    11.8206 H       
 345 H345         -69.0256    17.1583    12.9532 H       
 346 H346         -69.6310    18.8223    12.7714 H       
 347 H347         -67.4983    17.0267     9.5277 H       
 348 H348         -67.8567    16.0590    10.9781 H       
 349 H349         -69.1751    16.5502     9.8877 H       
 350 H350         -69.7569    21.1321     6.9258 H       
 351 H351          17.2733    19.0904    19.5893 H       
 352 H352          16.7417    20.5594    20.4424 H       
 353 H353          17.4033    19.1865    21.3619 H       
 354 H354          15.4629    17.7986    20.6859 H       
 355 H355          14.9314    19.2676    21.5389 H       
 356 H356          14.4962    20.3739    19.3628 H       
 357 H357          15.0277    18.9049    18.5098 H       
 358 H358          13.2173    17.6131    19.6063 H       
 359 H359          12.6858    19.0821    20.4594 H       
 360 H360          12.2507    20.1883    18.2832 H       
 361 H361          12.7822    18.7193    17.4302 H       
 362 H362          10.9718    17.4275    18.5267 H       
 363 H363          10.4403    18.8965    19.3798 H       
 364 H364          10.0051    20.0028    17.2037 H       
 365 H365          10.5366    18.5338    16.3506 H       
 366 H366           8.7262    17.2420    17.4471 H       
 367 H367           8.1947    18.7110    18.3002 H       
 368 H368           7.7596    19.8172    16.1241 H       
 369 H369           8.2911    18.3482    15.2710 H       
 370 H370           6.4807    17.0564    16.3676 H       
 371 H371           5.9492    18.5254    17.2206 H       
 372 H372           5.5140    19.6317    15.0445 H       
 373 H373           6.0455    18.1626    14.1914 H       
 374 H374           4.2351    16.8709    15.2880 H       
 375 H375           3.7036    18.3399    16.1410 H       
 376 H376           3.2685    19.4461    13.9649 H       
 377 H377           3.8000    17.9771    13.1119 H       
 378 H378           1.9896    16.6853    14.2084 H       
 379 H379           1.4581    18.1543    15.0615 H       
 380 H380           1.5544    17.7915    12.0323 H       
 381 H381           1.0229    19.2606    12.8853 H       
@<TRIPOS>BOND
   1    1    2 2
   2    1    4 1
   3    1   10 am
   4    3  165 am
   5    3    4 1
   6    3  182 1
   7    4    5 1
   8    4  183 1
   9    5    6 1
  10    5    7 1
  11    5  184 1
  12    6  185 1
  13    6  186 1
  14    6  187 1
  15    7  188 1
  16    8    9 2
  17    8   11 1
  18    8   18 am
  19   10   11 1
  20   10  189 1
  21   11   12 1
  22   11  190 1
  23   12   13 1
  24   12  191 1
  25   12  192 1
  26   13   14 2
  27   13   15 am
  28   15  193 1
  29   15  194 1
  30   16   17 2
  31   16   19 1
  32   16   23 am
  33   18   19 1
  34   18  195 1
  35   19   20 1
  36   19  196 1
  37   20  197 1
  38   20  198 1
  39   20  199 1
  40   21   22 2
  41   21   24 1
  42   21   27 am
  43   23   24 1
  44   23  200 1
  45   24  201 1
  46   24  202 1
  47   25   26 2
  48   25   28 1
  49   25   38 am
  50   27   28 1
  51   27  203 1
  52   28   29 1
  53   28  204 1
  54   29   30 1
  55   29  205 1
  56   29  206 1
  57   30   31 1
  58   30  207 1
  59   30  208 1
  60   31   32 1
  61   31  209 1
  62   31  210 1
  63   32   33 1
  64   32  211 1
  65   33   34 2
  66   33   35 1
  67   34  212 1
  68   35  213 1
  69   35  214 1
  70   36   37 2
  71   36   39 1
  72   36   44 am
  73   38   39 1
  74   38  215 1
  75   39   40 1
  76   39  216 1
  77   40   41 1
  78   40  217 1
  79   40  218 1
  80   41  219 1
  81   42   43 2
  82   42   45 1
  83   42   52 am
  84   44   45 1
  85   44  220 1
  86   45   46 1
  87   45  221 1
  88   46   47 1
  89   46  222 1
  90   46  223 1
  91   47   48 2
  92   47   49 1
  93   49  224 1
  94   50   51 2
  95   50   53 1
  96   50   59 am
  97   52   53 1
  98   52  225 1
  99   53   54 1
 100   53  226 1
 101   54   55 1
 102   54   56 1
 103   54  227 1
 104   55  228 1
 105   55  229 1
 106   55  230 1
 107   56  231 1
 108   57   58 2
 109   57   60 1
 110   57   70 am
 111   59   60 1
 112   59  232 1
 113   60   61 1
 114   60  233 1
 115   61   62 1
 116   61  234 1
 117   61  235 1
 118   62   63 1
 119   62  236 1
 120   62  237 1
 121   63   64 1
 122   63  238 1
 123   63  239 1
 124   64   65 1
 125   64  240 1
 126   65   66 2
 127   65   67 1
 128   66  241 1
 129   67  242 1
 130   67  243 1
 131   68   69 2
 132   68   71 1
 133   68   79 am
 134   70   71 1
 135   70  244 1
 136   71   72 1
 137   71  245 1
 138   72   73 1
 139   72  246 1
 140   72  247 1
 141   73   74 1
 142   73  248 1
 143   73  249 1
 144   74   75 2
 145   74   76 am
 146   76  250 1
 147   76  251 1
 148   77   78 2
 149   77   80 1
 150   77   88 am
 151   79   80 1
 152   79  252 1
 153   80   81 1
 154   80  253 1
 155   81   82 1
 156   81  254 1
 157   81  255 1
 158   82   83 1
 159   82  256 1
 160   82  257 1
 161   83   84 2
 162   83   85 am
 163   85  258 1
 164   85  259 1
 165   86   87 2
 166   86   89 1
 167   86  100 am
 168   88   89 1
 169   88  260 1
 170   89   90 1
 171   89  261 1
 172   90   91 1
 173   90  262 1
 174   90  263 1
 175   91   92 ar
 176   91   97 ar
 177   92   93 ar
 178   92  264 1
 179   93   94 ar
 180   93  265 1
 181   94   95 1
 182   94   96 ar
 183   95  266 1
 184   96   97 ar
 185   96  267 1
 186   97  268 1
 187   98   99 2
 188   98  101 1
 189   98  111 am
 190  100  101 1
 191  100  269 1
 192  101  102 1
 193  101  270 1
 194  102  103 1
 195  102  271 1
 196  102  272 1
 197  103  104 1
 198  103  273 1
 199  103  274 1
 200  104  105 1
 201  104  275 1
 202  104  276 1
 203  105  106 1
 204  105  277 1
 205  106  107 2
 206  106  108 1
 207  107  278 1
 208  108  279 1
 209  108  280 1
 210  109  110 2
 211  109  112 1
 212  109  120 am
 213  111  112 1
 214  111  281 1
 215  112  113 1
 216  112  282 1
 217  113  114 1
 218  113  283 1
 219  113  284 1
 220  114  115 1
 221  114  285 1
 222  114  286 1
 223  115  116 1
 224  115  287 1
 225  115  288 1
 226  116  117 1
 227  116  289 1
 228  116  290 1
 229  117  291 1
 230  117  292 1
 231  118  119 2
 232  118  121 1
 233  118  128 am
 234  120  121 1
 235  120  293 1
 236  121  122 1
 237  121  294 1
 238  122  123 1
 239  122  295 1
 240  122  296 1
 241  123  124 1
 242  123  125 1
 243  123  297 1
 244  124  298 1
 245  124  299 1
 246  124  300 1
 247  125  301 1
 248  125  302 1
 249  125  303 1
 250  126  127 2
 251  126  129 1
 252  126  136 am
 253  128  129 1
 254  128  304 1
 255  129  130 1
 256  129  305 1
 257  130  131 1
 258  130  306 1
 259  130  307 1
 260  131  132 1
 261  131  133 1
 262  131  308 1
 263  132  309 1
 264  132  310 1
 265  132  311 1
 266  133  312 1
 267  133  313 1
 268  133  314 1
 269  134  135 2
 270  134  137 1
 271  134  145 am
 272  136  137 1
 273  136  315 1
 274  137  138 1
 275  137  316 1
 276  138  139 1
 277  138  317 1
 278  138  318 1
 279  139  140 1
 280  139  319 1
 281  139  320 1
 282  140  141 1
 283  140  321 1
 284  140  322 1
 285  141  142 1
 286  141  323 1
 287  141  324 1
 288  142  325 1
 289  142  326 1
 290  143  144 2
 291  143  146 1
 292  143  151 am
 293  145  146 1
 294  145  327 1
 295  146  147 1
 296  146  328 1
 297  147  148 1
 298  147  329 1
 299  147  330 1
 300  148  331 1
 301  149  150 2
 302  149  152 1
 303  149  158 am
 304  151  152 1
 305  151  332 1
 306  152  153 1
 307  152  333 1
 308  153  154 1
 309  153  155 1
 310  153  334 1
 311  154  335 1
 312  154  336 1
 313  154  337 1
 314  155  338 1
 315  156  157 2
 316  156  159 1
 317  156  164 1
 318  158  159 1
 319  158  339 1
 320  159  160 1
 321  159  340 1
 322  160  161 1
 323  160  341 1
 324  160  342 1
 325  161  162 1
 326  161  163 1
 327  161  343 1
 328  162  344 1
 329  162  345 1
 330  162  346 1
 331  163  347 1
 332  163  348 1
 333  163  349 1
 334  164  350 1
 335  165  166 2
 336  165  181 1
 337  167  168 1
 338  167  351 1
 339  167  352 1
 340  167  353 1
 341  168  169 1
 342  168  354 1
 343  168  355 1
 344  169  170 1
 345  169  356 1
 346  169  357 1
 347  170  171 1
 348  170  358 1
 349  170  359 1
 350  171  172 1
 351  171  360 1
 352  171  361 1
 353  172  173 1
 354  172  362 1
 355  172  363 1
 356  173  174 1
 357  173  364 1
 358  173  365 1
 359  174  175 1
 360  174  366 1
 361  174  367 1
 362  175  176 1
 363  175  368 1
 364  175  369 1
 365  176  177 1
 366  176  370 1
 367  176  371 1
 368  177  178 1
 369  177  372 1
 370  177  373 1
 371  178  179 1
 372  178  374 1
 373  178  375 1
 374  179  180 1
 375  179  376 1
 376  179  377 1
 377  180  181 1
 378  180  378 1
 379  180  379 1
 380  181  380 1
 381  181  381 1

#	End of record

