#	Name: ASD00842219
#	Creating user name:	WinNT
#	Creation time:	15. 06. 2019 18:43

#	Modifying user name:	WinNT
#	Modification time:	15. 06. 2019 18:43

#	Program:	/corina/corina34_cracker 3.40 0067  02.08.2006

@<TRIPOS>MOLECULE
ASD00842219
 100  105    0    0    0
SMALL
NO_CHARGES


@<TRIPOS>ATOM
   1 F1             6.0654    -1.6760    -2.0207 F       
   2 C2             0.9830     1.5422    -0.4527 C.ar    
   3 C3             1.2924     0.2082    -0.6735 C.ar    
   4 C4             1.2327    -0.6982     0.3754 C.ar    
   5 C5             0.8655    -0.2703     1.6363 C.ar    
   6 C6             0.5571     1.0601     1.8537 C.ar    
   7 C7             0.6163     1.9652     0.8105 C.ar    
   8 C8             1.5677    -2.1483     0.1389 C.3     
   9 C9             1.3097    -2.9626     1.3885 C.2     
  10 C10            0.7578    -2.6993    -1.0365 C.3     
  11 C11           -0.7105    -2.4701    -0.7861 C.2     
  12 N12           -1.6255    -2.9648    -1.6430 N.am    
  13 O13           -1.0687    -1.8404     0.1866 O.2     
  14 C14           -3.0520    -2.6547    -1.4763 C.3     
  15 C15           -3.8406    -3.9674    -1.4365 C.3     
  16 C16           -3.5181    -4.7897    -2.6864 C.3     
  17 C17           -2.0247    -5.1238    -2.7079 C.3     
  18 C18           -1.2149    -3.8196    -2.7653 C.3     
  19 C19           -4.3302    -6.0862    -2.6671 C.3     
  20 C20           -5.8247    -5.7535    -2.6473 C.3     
  21 C21           -6.6322    -7.0529    -2.6897 C.3     
  22 N22           -6.2950    -7.8007    -3.9077 N.3     
  23 C23           -4.8744    -8.1723    -3.9265 C.3     
  24 C24           -4.0145    -6.9064    -3.9210 C.3     
  25 C25           -7.1511    -8.9857    -4.0518 C.3     
  26 O26            0.2423    -3.1068     1.9462 O.2     
  27 N27            2.4841    -3.4961     1.7639 N.am    
  28 C28            3.0495    -2.3156    -0.1107 C.ar    
  29 C29            3.5264    -3.1367     0.9060 C.ar    
  30 C30            3.8921    -1.8280    -1.0853 C.ar    
  31 C31            5.2374    -2.1524    -1.0654 C.ar    
  32 C32            5.7346    -2.9766    -0.0507 C.ar    
  33 C33            4.8761    -3.4672     0.9327 C.ar    
  34 C34            2.4224    -6.1298     2.5604 C.ar    
  35 C35            1.1767    -6.5284     2.0974 C.ar    
  36 C36            3.4674    -7.0333     2.6005 C.ar    
  37 C37            3.2748    -8.3349     2.1796 C.ar    
  38 C38            2.0305    -8.7385     1.7156 C.ar    
  39 C39            0.9807    -7.8343     1.6748 C.ar    
  40 O40            1.8415   -10.0191     1.3020 O.3     
  41 O41            0.1493    -5.6396     2.0586 O.3     
  42 C42           -1.1052    -6.1190     1.5703 C.3     
  43 C43            2.9673   -10.8964     1.3723 C.3     
  44 C44           -6.8568    -9.6679    -5.3893 C.3     
  45 C45           -6.8676    -9.9618    -2.9082 C.3     
  46 C46            7.1252    -3.3174    -0.0222 C.1     
  47 N47            8.2283    -3.5878     0.0005 N.1     
  48 S48            2.6742    -4.4685     3.0908 S.o2    
  49 O49            4.0408    -4.3704     3.4677 O.2     
  50 O50            1.6014    -4.1612     3.9705 O.2     
  51 O51            1.6529    -0.2104    -1.9151 O.3     
  52 C52            2.1196     0.1315    -4.2616 C.3     
  53 C53            1.5839     0.7516    -2.9696 C.3     
  54 H54            1.0330     2.2505    -1.2665 H       
  55 H55            0.8189    -0.9754     2.4530 H       
  56 H56            0.2696     1.3925     2.8402 H       
  57 H57            0.3749     3.0037     0.9828 H       
  58 H58            1.0541    -2.1888    -1.9529 H       
  59 H59            0.9465    -3.7679    -1.1385 H       
  60 H60           -3.2010    -2.1105    -0.5437 H       
  61 H61           -3.3944    -2.0479    -2.3145 H       
  62 H62           -3.5617    -4.5326    -0.5472 H       
  63 H63           -4.9083    -3.7498    -1.4098 H       
  64 H64           -3.7743    -4.2141    -3.5758 H       
  65 H65           -1.7629    -5.6781    -1.8066 H       
  66 H66           -1.8000    -5.7291    -3.5860 H       
  67 H67           -1.4087    -3.3104    -3.7094 H       
  68 H68           -0.1519    -4.0455    -2.6811 H       
  69 H69           -4.0737    -6.6636    -1.7789 H       
  70 H70           -6.0636    -5.2062    -1.7355 H       
  71 H71           -6.0730    -5.1423    -3.5150 H       
  72 H72           -6.3936    -7.6574    -1.8146 H       
  73 H73           -7.6968    -6.8191    -2.6901 H       
  74 H74           -4.6441    -8.7716    -3.0456 H       
  75 H75           -4.6624    -8.7515    -4.8252 H       
  76 H76           -4.2344    -6.3133    -4.8087 H       
  77 H77           -2.9601    -7.1827    -3.9192 H       
  78 H78           -8.1979    -8.6837    -4.0206 H       
  79 H79            3.5022    -1.1920    -1.8662 H       
  80 H80            5.2605    -4.1037     1.7160 H       
  81 H81            4.4364    -6.7211     2.9613 H       
  82 H82            4.0932    -9.0389     2.2112 H       
  83 H83            0.0116    -8.1465     1.3144 H       
  84 H84           -1.8364    -5.3110     1.5921 H       
  85 H85           -0.9853    -6.4730     0.5464 H       
  86 H86           -1.4508    -6.9389     2.2000 H       
  87 H87            3.3072   -10.9694     2.4054 H       
  88 H88            2.6807   -11.8849     1.0134 H       
  89 H89            3.7730   -10.5041     0.7517 H       
  90 H90           -5.8099    -9.9700    -5.4205 H       
  91 H91           -7.4920   -10.5472    -5.4962 H       
  92 H92           -7.0587    -8.9725    -6.2040 H       
  93 H93           -7.0773    -9.4758    -1.9553 H       
  94 H94           -7.5028   -10.8411    -3.0151 H       
  95 H95           -5.8208   -10.2639    -2.9394 H       
  96 H96            1.4665    -0.6846    -4.5710 H       
  97 H97            2.1488     0.8900    -5.0438 H       
  98 H98            3.1251    -0.2529    -4.0905 H       
  99 H99            0.5478     1.0571    -3.1155 H       
 100 H100           2.1858     1.6218    -2.7075 H       
@<TRIPOS>BOND
   1    1   31 1
   2    2    3 ar
   3    2    7 ar
   4    2   54 1
   5    3    4 ar
   6    3   51 1
   7    4    5 ar
   8    4    8 1
   9    5    6 ar
  10    5   55 1
  11    6    7 ar
  12    6   56 1
  13    7   57 1
  14    8    9 1
  15    8   10 1
  16    8   28 1
  17    9   26 2
  18    9   27 am
  19   10   11 1
  20   10   58 1
  21   10   59 1
  22   11   12 am
  23   11   13 2
  24   12   14 1
  25   12   18 1
  26   14   15 1
  27   14   60 1
  28   14   61 1
  29   15   16 1
  30   15   62 1
  31   15   63 1
  32   16   17 1
  33   16   19 1
  34   16   64 1
  35   17   18 1
  36   17   65 1
  37   17   66 1
  38   18   67 1
  39   18   68 1
  40   19   20 1
  41   19   24 1
  42   19   69 1
  43   20   21 1
  44   20   70 1
  45   20   71 1
  46   21   22 1
  47   21   72 1
  48   21   73 1
  49   22   23 1
  50   22   25 1
  51   23   24 1
  52   23   74 1
  53   23   75 1
  54   24   76 1
  55   24   77 1
  56   25   44 1
  57   25   45 1
  58   25   78 1
  59   27   48 am
  60   27   29 1
  61   28   29 ar
  62   28   30 ar
  63   29   33 ar
  64   30   31 ar
  65   30   79 1
  66   31   32 ar
  67   32   33 ar
  68   32   46 1
  69   33   80 1
  70   34   35 ar
  71   34   36 ar
  72   34   48 1
  73   35   41 1
  74   35   39 ar
  75   36   37 ar
  76   36   81 1
  77   37   38 ar
  78   37   82 1
  79   38   39 ar
  80   38   40 1
  81   39   83 1
  82   40   43 1
  83   41   42 1
  84   42   84 1
  85   42   85 1
  86   42   86 1
  87   43   87 1
  88   43   88 1
  89   43   89 1
  90   44   90 1
  91   44   91 1
  92   44   92 1
  93   45   93 1
  94   45   94 1
  95   45   95 1
  96   46   47 3
  97   48   49 2
  98   48   50 2
  99   51   53 1
 100   52   53 1
 101   52   96 1
 102   52   97 1
 103   52   98 1
 104   53   99 1
 105   53  100 1

#	End of record

