#	Name: ASD03091359
#	Creating user name:	WinNT
#	Creation time:	15. 06. 2019 20:30

#	Modifying user name:	WinNT
#	Modification time:	15. 06. 2019 20:30

#	Program:	/corina/corina34_cracker 3.40 0067  02.08.2006

@<TRIPOS>MOLECULE
ASD03091359
  64   68    0    0    0
SMALL
NO_CHARGES


@<TRIPOS>ATOM
   1 N1            -0.1000     1.4228    -0.0284 N.am    
   2 C2            -0.1754     0.0652     0.1297 C.2     
   3 N3            -1.3021    -0.5970     0.0863 N.2     
   4 C4            -2.4814     0.0238    -0.1198 C.ar    
   5 C5            -2.5002     1.4266    -0.2933 C.ar    
   6 C6            -1.2217     2.1511    -0.2360 C.2     
   7 O7            -1.1733     3.3592    -0.3777 O.2     
   8 C8            -3.6831    -0.6898    -0.1657 C.ar    
   9 C9            -4.8594    -0.0298    -0.3766 C.ar    
  10 C10           -4.8832     1.3543    -0.5489 C.ar    
  11 C11           -3.7083     2.0861    -0.5072 C.ar    
  12 N12           -6.1003     2.0065    -0.7638 N.3     
  13 C13            1.2017     2.0920     0.0334 C.3     
  14 C14           -5.9284     3.4639    -0.7350 C.3     
  15 C15           -6.7087     1.5816    -2.0323 C.3     
  16 C16           -8.2188     1.4692    -1.8853 C.3     
  17 C17           -8.9181     2.8118    -1.8171 C.3     
  18 N18           -7.9771     3.9229    -2.0187 N.3     
  19 C19           -7.2562     4.2046    -0.7680 C.3     
  20 C20           -6.2769     2.5316    -3.1343 C.3     
  21 C21           -7.1637     3.7639    -3.2050 C.3     
  22 C22            1.0757    -0.6877     0.3598 C.ar    
  23 C23            1.7628     2.2478    -1.3814 C.3     
  24 C24            3.1562     2.8758    -1.3112 C.3     
  25 O25            3.6802     3.0213    -2.6327 O.3     
  26 C26            1.8557     0.8735    -2.0475 C.3     
  27 C27            0.8375     3.1500    -2.2005 C.3     
  28 C28            1.9236    -0.3332     1.4103 C.ar    
  29 C29            3.0900    -1.0396     1.6211 C.ar    
  30 C30            3.4211    -2.0976     0.7943 C.ar    
  31 C31            2.5844    -2.4558    -0.2510 C.ar    
  32 C32            1.4111    -1.7595    -0.4690 C.ar    
  33 F33            2.9143    -3.4902    -1.0550 F       
  34 H34           -3.6806    -1.7618    -0.0348 H       
  35 H35           -5.7840    -0.5869    -0.4109 H       
  36 H36           -3.7284     3.1577    -0.6405 H       
  37 H37            1.0833     3.0757     0.4877 H       
  38 H38            1.8889     1.4952     0.6331 H       
  39 H39           -5.3936     3.7384     0.1743 H       
  40 H40           -5.3338     3.7664    -1.5970 H       
  41 H41           -6.3183     0.5943    -2.2794 H       
  42 H42           -8.6123     0.9130    -2.7361 H       
  43 H43           -8.4408     0.9129    -0.9746 H       
  44 H44           -9.6870     2.8522    -2.5886 H       
  45 H45           -9.3901     2.9180    -0.8403 H       
  46 H46           -7.8660     3.8864     0.0775 H       
  47 H47           -7.0715     5.2763    -0.6936 H       
  48 H48           -5.2493     2.8447    -2.9497 H       
  49 H49           -6.3200     2.0088    -4.0898 H       
  50 H50           -7.8173     3.6797    -4.0732 H       
  51 H51           -6.5343     4.6460    -3.3229 H       
  52 H52            3.0900     3.8549    -0.8367 H       
  53 H53            3.8154     2.2331    -0.7277 H       
  54 H54            4.5633     3.4141    -2.6645 H       
  55 H55            0.8566     0.4486    -2.1447 H       
  56 H56            2.3037     0.9782    -3.0356 H       
  57 H57            2.4729     0.2147    -1.4366 H       
  58 H58            0.7713     4.1291    -1.7260 H       
  59 H59            1.2372     3.2610    -3.2085 H       
  60 H60           -0.1552     2.7026    -2.2505 H       
  61 H61            1.6673     0.4929     2.0570 H       
  62 H62            3.7464    -0.7652     2.4337 H       
  63 H63            4.3355    -2.6468     0.9636 H       
  64 H64            0.7590    -2.0389    -1.2833 H       
@<TRIPOS>BOND
   1    1    2 1
   2    1   13 1
   3    1    6 am
   4    2    3 2
   5    2   22 1
   6    3    4 1
   7    4    5 ar
   8    4    8 ar
   9    5    6 1
  10    5   11 ar
  11    6    7 2
  12    8    9 ar
  13    8   34 1
  14    9   10 ar
  15    9   35 1
  16   10   11 ar
  17   10   12 1
  18   11   36 1
  19   12   15 1
  20   12   14 1
  21   13   23 1
  22   13   37 1
  23   13   38 1
  24   14   19 1
  25   14   39 1
  26   14   40 1
  27   15   16 1
  28   15   20 1
  29   15   41 1
  30   16   17 1
  31   16   42 1
  32   16   43 1
  33   17   18 1
  34   17   44 1
  35   17   45 1
  36   18   19 1
  37   18   21 1
  38   19   46 1
  39   19   47 1
  40   20   21 1
  41   20   48 1
  42   20   49 1
  43   21   50 1
  44   21   51 1
  45   22   28 ar
  46   22   32 ar
  47   23   24 1
  48   23   26 1
  49   23   27 1
  50   24   25 1
  51   24   52 1
  52   24   53 1
  53   25   54 1
  54   26   55 1
  55   26   56 1
  56   26   57 1
  57   27   58 1
  58   27   59 1
  59   27   60 1
  60   28   29 ar
  61   28   61 1
  62   29   30 ar
  63   29   62 1
  64   30   31 ar
  65   30   63 1
  66   31   32 ar
  67   31   33 1
  68   32   64 1

#	End of record

