#	Name: ASD08150030
#	Creating user name:	WinNT
#	Creation time:	15. 06. 2019 21:15

#	Modifying user name:	WinNT
#	Modification time:	15. 06. 2019 21:15

#	Program:	/corina/corina34_cracker 3.40 0067  02.08.2006

@<TRIPOS>MOLECULE
ASD08150030
  50   54    0    0    0
SMALL
NO_CHARGES


@<TRIPOS>ATOM
   1 N1            -0.0155     1.2946     0.0092 N.2     
   2 C2             0.0021    -0.0041     0.0020 C.2     
   3 N3             1.1481    -0.7357    -0.0129 N.am    
   4 C4             2.3557    -0.1246    -0.0211 C.2     
   5 C5             2.3703     1.3452    -0.0133 C.ar    
   6 C6             3.5599     2.0710    -0.0198 C.ar    
   7 C7             3.5179     3.4380    -0.0111 C.ar    
   8 C8             2.3029     4.1104     0.0045 C.ar    
   9 C9             1.1131     3.4174     0.0117 C.ar    
  10 C10            1.1295     2.0208     0.0021 C.ar    
  11 O11            3.3896    -0.7672    -0.0340 O.2     
  12 C12           -1.3145    -0.7373     0.0112 C.3     
  13 S13           -2.6718     0.4600     0.0311 S.3     
  14 N14           -5.9165     1.0935     0.0666 N.2     
  15 C15           -7.2137     0.9890     0.0790 C.2     
  16 N16           -7.5749    -0.3256     0.0762 N.pl3   
  17 C17           -6.4218    -1.0688     0.0611 C.ar    
  18 N18           -6.1429    -2.3683     0.0516 N.ar    
  19 C19           -4.8947    -2.7870     0.0367 C.ar    
  20 N20           -3.8685    -1.9564     0.0300 N.ar    
  21 C21           -4.0491    -0.6389     0.0389 C.ar    
  22 C22           -5.3646    -0.1434     0.0551 C.ar    
  23 C23            1.0782    -2.1369    -0.0193 C.ar    
  24 C24            1.0552    -2.8396     1.1839 C.ar    
  25 C25            0.9857    -4.2227     1.1740 C.ar    
  26 C26            0.9391    -4.9053    -0.0326 C.ar    
  27 C27            0.9621    -4.2040    -1.2295 C.ar    
  28 C28            1.0261    -2.8239    -1.2230 C.ar    
  29 O29            0.8713    -6.2630    -0.0424 O.3     
  30 C30            0.8262    -6.9011    -1.3203 C.3     
  31 O31            1.1014    -2.1687     2.3652 O.3     
  32 C32            1.0741    -2.9540     3.5588 C.3     
  33 H33            4.5096     1.5569    -0.0312 H       
  34 H34            4.4397     4.0007    -0.0161 H       
  35 H35            2.2910     5.1903     0.0115 H       
  36 H36            0.1737     3.9501     0.0245 H       
  37 H37           -1.3908    -1.3582    -0.8814 H       
  38 H38           -1.3731    -1.3677     0.8984 H       
  39 H39           -7.9024     1.8208     0.0899 H       
  40 H40           -8.4809    -0.6719     0.0835 H       
  41 H41           -4.7031    -3.8498     0.0297 H       
  42 H42            0.9681    -4.7695     2.1052 H       
  43 H43            0.9261    -4.7377    -2.1677 H       
  44 H44            1.0398    -2.2799    -2.1559 H       
  45 H45            0.7737    -7.9814    -1.1853 H       
  46 H46           -0.0536    -6.5599    -1.8659 H       
  47 H47            1.7241    -6.6486    -1.8844 H       
  48 H48            1.9314    -3.6271     3.5706 H       
  49 H49            1.1164    -2.2967     4.4273 H       
  50 H50            0.1538    -3.5373     3.5890 H       
@<TRIPOS>BOND
   1    1    2 2
   2    1   10 1
   3    2    3 1
   4    2   12 1
   5    3    4 am
   6    3   23 1
   7    4    5 1
   8    4   11 2
   9    5    6 ar
  10    5   10 ar
  11    6    7 ar
  12    6   33 1
  13    7    8 ar
  14    7   34 1
  15    8    9 ar
  16    8   35 1
  17    9   10 ar
  18    9   36 1
  19   12   13 1
  20   12   37 1
  21   12   38 1
  22   13   21 1
  23   14   15 2
  24   14   22 1
  25   15   16 1
  26   15   39 1
  27   16   17 1
  28   16   40 1
  29   17   18 ar
  30   17   22 ar
  31   18   19 ar
  32   19   20 ar
  33   19   41 1
  34   20   21 ar
  35   21   22 ar
  36   23   24 ar
  37   23   28 ar
  38   24   25 ar
  39   24   31 1
  40   25   26 ar
  41   25   42 1
  42   26   27 ar
  43   26   29 1
  44   27   28 ar
  45   27   43 1
  46   28   44 1
  47   29   30 1
  48   30   45 1
  49   30   46 1
  50   30   47 1
  51   31   32 1
  52   32   48 1
  53   32   49 1
  54   32   50 1

#	End of record

