#	Name: ASD01880422
#	Creating user name:	WinNT
#	Creation time:	15. 06. 2019 19:40

#	Modifying user name:	WinNT
#	Modification time:	15. 06. 2019 19:40

#	Program:	/corina/corina34_cracker 3.40 0067  02.08.2006

@<TRIPOS>MOLECULE
ASD01880422
  19   18    0    0    0
SMALL
NO_CHARGES


@<TRIPOS>ATOM
   1 O1            -0.0161     1.3381     0.0094 O.3     
   2 C2             0.0021    -0.0041     0.0020 C.2     
   3 O3             1.0565    -0.5939    -0.0112 O.2     
   4 C4            -1.2926    -0.7753     0.0102 C.3     
   5 C5            -1.8454    -0.8287     1.4359 C.3     
   6 O6            -3.1284    -1.4578     1.4261 O.3     
   7 P7            -4.0045    -1.6836     2.7578 P.3     
   8 O8            -4.1966    -0.3883     3.4476 O.2     
   9 O9            -5.4386    -2.2972     2.3591 O.3     
  10 O10           -3.2376    -2.7050     3.7379 O.3     
  11 N11           -1.0519    -2.1414    -0.4731 N.3     
  12 H12            0.8394     1.7888     0.0037 H       
  13 H13           -2.0139    -0.2813    -0.6408 H       
  14 H14           -1.1655    -1.3999     2.0680 H       
  15 H15           -1.9404     0.1843     1.8269 H       
  16 H16           -6.0206    -2.4595     3.1141 H       
  17 H17           -3.0774    -3.5764     3.3506 H       
  18 H18           -0.7475    -2.1362    -1.4351 H       
  19 H19           -0.3861    -2.6207     0.1143 H       
@<TRIPOS>BOND
   1    1    2 1
   2    1   12 1
   3    2    3 2
   4    2    4 1
   5    4    5 1
   6    4   11 1
   7    4   13 1
   8    5    6 1
   9    5   14 1
  10    5   15 1
  11    6    7 1
  12    7    8 2
  13    7    9 1
  14    7   10 1
  15    9   16 1
  16   10   17 1
  17   11   18 1
  18   11   19 1

#	End of record

