#	Name: ASD04590295
#	Creating user name:	WinNT
#	Creation time:	15. 06. 2019 20:50

#	Modifying user name:	WinNT
#	Modification time:	15. 06. 2019 20:50

#	Program:	/corina/corina34_cracker 3.40 0067  02.08.2006

@<TRIPOS>MOLECULE
ASD04590295
  40   43    0    0    0
SMALL
NO_CHARGES


@<TRIPOS>ATOM
   1 C1            -0.0167     1.3834     0.0096 C.ar    
   2 C2             0.0021    -0.0041     0.0020 C.ar    
   3 C3             1.1863    -0.6848    -0.0129 C.ar    
   4 C4             2.3948     0.0191    -0.0207 C.ar    
   5 C5             2.3756     1.4250    -0.0129 C.ar    
   6 C6             1.1624     2.0987     0.0022 C.ar    
   7 N7             3.6952    -0.3636    -0.0358 N.2     
   8 C8             4.4664     0.6967    -0.0379 C.2     
   9 N9             3.6970     1.8290    -0.0241 N.pl3   
  10 C10            5.9437     0.6731    -0.0525 C.2     
  11 C11            6.7566    -0.4840    -0.0669 C.2     
  12 C12            8.0504    -0.0799    -0.0782 C.2     
  13 N13            8.0626     1.2789    -0.0712 N.pl3   
  14 N14            6.7358     1.7273    -0.0602 N.2     
  15 N15            6.3044    -1.8133    -0.0692 N.am    
  16 C16            7.1924    -2.8271    -0.0836 C.2     
  17 C17            6.7163    -4.2267    -0.0860 C.ar    
  18 O18            8.3849    -2.5906    -0.0947 O.2     
  19 C19            4.9068    -5.8085    -0.0693 C.ar    
  20 C20            5.8168    -6.8495    -0.0894 C.ar    
  21 C21            7.1797    -6.5865    -0.1026 C.ar    
  22 C22            7.6332    -5.2779    -0.1010 C.ar    
  23 C23            5.3475    -4.5011    -0.0675 C.ar    
  24 O24            8.0696    -7.6136    -0.1224 O.3     
  25 C25            7.5320    -8.9376    -0.1287 C.3     
  26 H26           -0.9614     1.9069     0.0169 H       
  27 H27           -0.9290    -0.5513     0.0083 H       
  28 H28            1.1893    -1.7648    -0.0184 H       
  29 H29            1.1417     3.1785     0.0079 H       
  30 H30            4.0192     2.7439    -0.0224 H       
  31 H31            8.9176    -0.7236    -0.0905 H       
  32 H32            8.8531     1.8410    -0.0760 H       
  33 H33            5.3530    -2.0020    -0.0604 H       
  34 H34            3.8476    -6.0194    -0.0595 H       
  35 H35            5.4659    -7.8709    -0.0904 H       
  36 H36            8.6933    -5.0719    -0.1116 H       
  37 H37            4.6341    -3.6905    -0.0514 H       
  38 H38            6.9090    -9.0727    -1.0129 H       
  39 H39            8.3474    -9.6608    -0.1448 H       
  40 H40            6.9295    -9.0894     0.7669 H       
@<TRIPOS>BOND
   1    1    2 ar
   2    1    6 ar
   3    1   26 1
   4    2    3 ar
   5    2   27 1
   6    3    4 ar
   7    3   28 1
   8    4    5 ar
   9    4    7 1
  10    5    6 ar
  11    5    9 1
  12    6   29 1
  13    7    8 2
  14    8    9 1
  15    8   10 1
  16    9   30 1
  17   10   11 1
  18   10   14 2
  19   11   12 2
  20   11   15 1
  21   12   13 1
  22   12   31 1
  23   13   14 1
  24   13   32 1
  25   15   16 am
  26   15   33 1
  27   16   17 1
  28   16   18 2
  29   17   22 ar
  30   17   23 ar
  31   19   20 ar
  32   19   23 ar
  33   19   34 1
  34   20   21 ar
  35   20   35 1
  36   21   22 ar
  37   21   24 1
  38   22   36 1
  39   23   37 1
  40   24   25 1
  41   25   38 1
  42   25   39 1
  43   25   40 1

#	End of record

