#	Name: ASD07300807
#	Creating user name:	WinNT
#	Creation time:	15. 06. 2019 21:10

#	Modifying user name:	WinNT
#	Modification time:	15. 06. 2019 21:10

#	Program:	/corina/corina34_cracker 3.40 0067  02.08.2006

@<TRIPOS>MOLECULE
ASD07300807
  48   51    0    0    0
SMALL
NO_CHARGES


@<TRIPOS>ATOM
   1 C1            -0.0034     1.3917     0.2418 C.2     
   2 C2             0.0021    -0.0041     0.0020 C.2     
   3 N3             1.1922     2.0664     0.2268 N.pl3   
   4 N4             1.1443    -0.6209    -0.2284 N.2     
   5 C5             2.3036     0.0454    -0.2408 C.2     
   6 C6             2.3499     1.3738    -0.0182 C.2     
   7 N7            -0.9715     2.2571     0.5011 N.2     
   8 C8            -0.4519     3.4750     0.6501 C.2     
   9 C9             0.9171     3.3827     0.4824 C.2     
  10 N10           -1.1867    -0.7177     0.0100 N.pl3   
  11 C11           -2.4819    -0.0306     0.1360 C.3     
  12 C12           -3.4045    -0.5292    -0.9821 C.3     
  13 O13           -3.4393    -1.9583    -0.9615 O.3     
  14 C14           -2.1761    -2.5782    -1.2140 C.3     
  15 C15           -1.1908    -2.1840    -0.1135 C.3     
  16 N16            2.8717     6.4362     0.3112 N.pl3   
  17 N17            3.7055     5.6258     1.0911 N.2     
  18 C18            3.1292     4.4634     1.2472 C.2     
  19 C19            1.8951     4.4906     0.5660 C.2     
  20 C20            1.7663     5.7261    -0.0026 C.2     
  21 C21            3.1477     7.8179    -0.0899 C.3     
  22 C22            3.4302     8.6633     1.1536 C.3     
  23 O23            3.6994    10.0110     0.7623 O.3     
  24 C24            3.9777    10.8890     1.8549 C.3     
  25 O25           -1.1472     4.6109     0.9246 O.3     
  26 C26           -2.5637     4.4862     1.0663 C.3     
  27 H27            3.2208    -0.4916    -0.4329 H       
  28 H28            3.2974     1.8920    -0.0332 H       
  29 H29           -2.9248    -0.2572     1.1059 H       
  30 H30           -2.3374     1.0455     0.0402 H       
  31 H31           -4.4099    -0.1383    -0.8259 H       
  32 H32           -3.0260    -0.1881    -1.9457 H       
  33 H33           -2.2977    -3.6613    -1.2248 H       
  34 H34           -1.7931    -2.2445    -2.1785 H       
  35 H35           -0.1918    -2.5333    -0.3744 H       
  36 H36           -1.5015    -2.6311     0.8308 H       
  37 H37            3.5289     3.6271     1.8014 H       
  38 H38            0.9322     6.0723    -0.5949 H       
  39 H39            4.0161     7.8386    -0.7483 H       
  40 H40            2.2832     8.2231    -0.6159 H       
  41 H41            2.5618     8.6426     1.8120 H       
  42 H42            4.2947     8.2581     1.6796 H       
  43 H43            3.1206    10.9145     2.5279 H       
  44 H44            4.8535    10.5300     2.3955 H       
  45 H45            4.1712    11.8921     1.4749 H       
  46 H46           -2.9888     4.0990     0.1403 H       
  47 H47           -2.7881     3.8008     1.8836 H       
  48 H48           -2.9945     5.4636     1.2832 H       
@<TRIPOS>BOND
   1    1    2 1
   2    1    3 1
   3    1    7 2
   4    2    4 2
   5    2   10 1
   6    3    6 1
   7    3    9 1
   8    4    5 1
   9    5    6 2
  10    5   27 1
  11    6   28 1
  12    7    8 1
  13    8    9 2
  14    8   25 1
  15    9   19 1
  16   10   11 1
  17   10   15 1
  18   11   12 1
  19   11   29 1
  20   11   30 1
  21   12   13 1
  22   12   31 1
  23   12   32 1
  24   13   14 1
  25   14   15 1
  26   14   33 1
  27   14   34 1
  28   15   35 1
  29   15   36 1
  30   16   17 1
  31   16   20 1
  32   16   21 1
  33   17   18 2
  34   18   19 1
  35   18   37 1
  36   19   20 2
  37   20   38 1
  38   21   22 1
  39   21   39 1
  40   21   40 1
  41   22   23 1
  42   22   41 1
  43   22   42 1
  44   23   24 1
  45   24   43 1
  46   24   44 1
  47   24   45 1
  48   25   26 1
  49   26   46 1
  50   26   47 1
  51   26   48 1

#	End of record

