#	Name: ASD04500007
#	Creating user name:	WinNT
#	Creation time:	15. 06. 2019 20:49

#	Modifying user name:	WinNT
#	Modification time:	15. 06. 2019 20:49

#	Program:	/corina/corina34_cracker 3.40 0067  02.08.2006

@<TRIPOS>MOLECULE
ASD04500007
  99  104    0    0    0
SMALL
NO_CHARGES


@<TRIPOS>ATOM
   1 O1            -0.0173     1.4248     0.0099 O.3     
   2 C2             0.0021    -0.0041     0.0020 C.3     
   3 C3             0.7175    -0.5102     1.2573 C.3     
   4 C4             2.1334     0.0727     1.2986 C.3     
   5 C5             2.0458     1.6014     1.2560 C.3     
   6 C6             1.2791     2.0260     0.0007 C.3     
   7 C7            -1.4332    -0.5337    -0.0158 C.3     
   8 O8             1.1425     3.4714    -0.0175 O.3     
   9 O9             2.7938    -0.3420     2.5234 O.3     
  10 O10            0.7904    -1.9600     1.2230 O.3     
  11 O11            3.3842     2.1633     1.2203 O.3     
  12 O12           -2.0747    -0.1515    -1.2611 O.3     
  13 C13           -3.3521    -0.5431    -1.4366 C.2     
  14 C14           -4.0675    -0.1909    -2.6772 C.ar    
  15 O15           -3.9145    -1.1863    -0.5727 O.2     
  16 C16            0.5785     4.0189    -1.1120 C.2     
  17 C17            0.4073     5.4810    -1.2003 C.ar    
  18 O18            0.2109     3.3078    -2.0262 O.2     
  19 C19            3.5539     3.3756     1.7836 C.2     
  20 C20            4.8861     4.0082     1.7847 C.ar    
  21 O21            2.6094     3.9475     2.2907 O.2     
  22 C22            4.1335    -0.4803     2.4795 C.2     
  23 C23            4.8716    -0.8985     3.6858 C.ar    
  24 O24            4.7334    -0.2604     1.4460 O.2     
  25 C25           -0.2318    -2.6373     1.7817 C.2     
  26 C26           -0.2255    -4.1121     1.7837 C.ar    
  27 O27           -1.1586    -2.0331     2.2838 O.2     
  28 C28           -5.4143     0.4714    -5.0138 C.ar    
  29 C29           -4.0926     0.8721    -4.8361 C.ar    
  30 C30           -3.4199     0.5439    -3.6742 C.ar    
  31 C31           -5.3923    -0.5964    -2.8605 C.ar    
  32 C32           -6.0602    -0.2654    -4.0244 C.ar    
  33 C33            0.6732     7.6704    -0.2374 C.ar    
  34 C34            0.8348     6.3005    -0.1520 C.ar    
  35 C35           -0.1775     6.0502    -2.3349 C.ar    
  36 C36           -0.3367     7.4207    -2.4150 C.ar    
  37 C37            0.0850     8.2343    -1.3666 C.ar    
  38 C38            5.9722     3.3541     1.1966 C.ar    
  39 C39            5.0636     5.2656     2.3686 C.ar    
  40 C40            6.3130     5.8563     2.3677 C.ar    
  41 C41            7.3945     5.2000     1.7858 C.ar    
  42 C42            7.2195     3.9495     1.1986 C.ar    
  43 C43            6.2611    -1.0424     3.6416 C.ar    
  44 C44            6.9503    -1.4340     4.7738 C.ar    
  45 C45            6.2616    -1.6857     5.9575 C.ar    
  46 C46            4.8772    -1.5432     6.0044 C.ar    
  47 C47            4.1835    -1.1462     4.8768 C.ar    
  48 C48           -1.2850    -4.8159     2.3628 C.ar    
  49 C49           -1.2765    -6.1980     2.3633 C.ar    
  50 C50           -0.2136    -6.8892     1.7875 C.ar    
  51 C51            0.8435    -6.1905     1.2102 C.ar    
  52 C52            0.8372    -4.8084     1.2014 C.ar    
  53 O53           -3.4646     1.5912    -5.8047 O.3     
  54 O54           -6.0733     0.7954    -6.1571 O.3     
  55 O55           -7.3511    -0.6552    -4.2012 O.3     
  56 O56            1.0890     8.4685     0.7823 O.3     
  57 O57           -0.0732     9.5815    -1.4477 O.3     
  58 O58           -0.9053     7.9753    -3.5190 O.3     
  59 O59            6.4863     7.0800     2.9353 O.3     
  60 O60            8.6217     5.7833     1.7859 O.3     
  61 O61            8.2768     3.3136     0.6266 O.3     
  62 O62            8.3024    -1.5742     4.7315 O.3     
  63 O63            6.9416    -2.0715     7.0689 O.3     
  64 O64            4.2076    -1.7902     7.1621 O.3     
  65 O65           -2.3069    -6.8835     2.9271 O.3     
  66 O66           -0.2078    -8.2480     1.7894 O.3     
  67 O67            1.8805    -6.8688     0.6495 O.3     
  68 H68            0.5305    -0.3556    -0.8842 H       
  69 H69            0.1670    -0.1932     2.1431 H       
  70 H70            2.6999    -0.2842     0.4385 H       
  71 H71            1.5222     1.9611     2.1417 H       
  72 H72            1.8242     1.7010    -0.8855 H       
  73 H73           -1.4205    -1.6204     0.0677 H       
  74 H74           -1.9869    -0.1113     0.8227 H       
  75 H75           -2.3950     0.8553    -3.5368 H       
  76 H76           -5.8937    -1.1681    -2.0936 H       
  77 H77            1.2908     5.8636     0.7242 H       
  78 H78           -0.5044     5.4196    -3.1485 H       
  79 H79            5.8371     2.3841     0.7414 H       
  80 H80            4.2250     5.7752     2.8197 H       
  81 H81            6.7957    -0.8480     2.7236 H       
  82 H82            3.1103    -1.0315     4.9149 H       
  83 H83           -2.1094    -4.2803     2.8099 H       
  84 H84            1.6572    -4.2670     0.7532 H       
  85 H85           -3.5609     2.5486    -5.7086 H       
  86 H86           -5.9862     0.1383    -6.8611 H       
  87 H87           -7.4466    -1.5172    -4.6289 H       
  88 H88            2.0041     8.7695     0.6982 H       
  89 H89            0.6759    10.0419    -1.8501 H       
  90 H90           -1.8665     8.0650    -3.4634 H       
  91 H91            6.7190     7.0491     3.8734 H       
  92 H92            9.1598     5.5673     2.5598 H       
  93 H93            8.3985     3.5179    -0.3107 H       
  94 H94            8.7886    -0.7685     4.9541 H       
  95 H95            7.2338    -1.3370     7.6259 H       
  96 H96            4.1091    -1.0155     7.7324 H       
  97 H97           -3.0275    -7.0846     2.3144 H       
  98 H98           -0.6283    -8.6442     1.0140 H       
  99 H99            1.7586    -7.0681    -0.2888 H       
@<TRIPOS>BOND
   1    1    2 1
   2    1    6 1
   3    2    3 1
   4    2    7 1
   5    2   68 1
   6    3    4 1
   7    3   10 1
   8    3   69 1
   9    4    5 1
  10    4    9 1
  11    4   70 1
  12    5    6 1
  13    5   11 1
  14    5   71 1
  15    6    8 1
  16    6   72 1
  17    7   12 1
  18    7   73 1
  19    7   74 1
  20    8   16 1
  21    9   22 1
  22   10   25 1
  23   11   19 1
  24   12   13 1
  25   13   14 1
  26   13   15 2
  27   14   31 ar
  28   14   30 ar
  29   16   17 1
  30   16   18 2
  31   17   35 ar
  32   17   34 ar
  33   19   20 1
  34   19   21 2
  35   20   39 ar
  36   20   38 ar
  37   22   23 1
  38   22   24 2
  39   23   43 ar
  40   23   47 ar
  41   25   26 1
  42   25   27 2
  43   26   48 ar
  44   26   52 ar
  45   28   29 ar
  46   28   32 ar
  47   28   54 1
  48   29   30 ar
  49   29   53 1
  50   30   75 1
  51   31   32 ar
  52   31   76 1
  53   32   55 1
  54   33   34 ar
  55   33   37 ar
  56   33   56 1
  57   34   77 1
  58   35   36 ar
  59   35   78 1
  60   36   37 ar
  61   36   58 1
  62   37   57 1
  63   38   42 ar
  64   38   79 1
  65   39   40 ar
  66   39   80 1
  67   40   41 ar
  68   40   59 1
  69   41   42 ar
  70   41   60 1
  71   42   61 1
  72   43   44 ar
  73   43   81 1
  74   44   45 ar
  75   44   62 1
  76   45   46 ar
  77   45   63 1
  78   46   47 ar
  79   46   64 1
  80   47   82 1
  81   48   49 ar
  82   48   83 1
  83   49   50 ar
  84   49   65 1
  85   50   51 ar
  86   50   66 1
  87   51   52 ar
  88   51   67 1
  89   52   84 1
  90   53   85 1
  91   54   86 1
  92   55   87 1
  93   56   88 1
  94   57   89 1
  95   58   90 1
  96   59   91 1
  97   60   92 1
  98   61   93 1
  99   62   94 1
 100   63   95 1
 101   64   96 1
 102   65   97 1
 103   66   98 1
 104   67   99 1

#	End of record

