#	Name: ASD01231366
#	Creating user name:	WinNT
#	Creation time:	15. 06. 2019 19:15

#	Modifying user name:	WinNT
#	Modification time:	15. 06. 2019 19:15

#	Program:	/corina/corina34_cracker 3.40 0067  02.08.2006

@<TRIPOS>MOLECULE
ASD01231366
  46   48    0    0    0
SMALL
NO_CHARGES


@<TRIPOS>ATOM
   1 C1            -0.0184     1.5028     0.0103 C.2     
   2 C2             0.0021    -0.0041     0.0020 C.3     
   3 O3             1.0236     2.1234     0.0037 O.2     
   4 N4            -1.1946     2.1607     0.0195 N.am    
   5 C5            -1.2145     3.6256     0.0275 C.3     
   6 C6            -2.5364     4.1466    -0.5752 C.3     
   7 C7            -3.4295     4.3061     0.6735 C.3     
   8 C8            -2.4691     4.5343     1.8210 C.ar    
   9 C9            -2.6912     5.0438     3.0895 C.ar    
  10 C10           -1.6455     5.1621     3.9839 C.ar    
  11 C11           -0.3725     4.7710     3.6126 C.ar    
  12 C12           -0.1490     4.2627     2.3481 C.ar    
  13 C13           -1.1963     4.1433     1.4498 C.ar    
  14 C14           -1.8918     5.7175     5.3630 C.3     
  15 C15           -2.2369     4.5918     6.3036 C.ar    
  16 C16           -1.2349     3.9389     6.9973 C.ar    
  17 C17           -1.5514     2.9064     7.8599 C.ar    
  18 C18           -2.8700     2.5269     8.0295 C.ar    
  19 C19           -3.8717     3.1802     7.3368 C.ar    
  20 C20           -3.5555     4.2159     6.4771 C.ar    
  21 C21           -5.3089     2.7662     7.5213 C.3     
  22 F22           -5.3761     1.7090     8.4350 F       
  23 F23           -6.0478     3.8502     8.0073 F       
  24 F24           -5.8372     2.3551     6.2928 F       
  25 C25           -0.4591     2.1941     8.6153 C.3     
  26 O26           -0.2374     2.8512     9.8647 O.3     
  27 F27            1.3272    -0.4524    -0.0130 F       
  28 F28           -0.6401    -0.4855     1.1479 F       
  29 F29           -0.6619    -0.4732    -1.1365 F       
  30 H30           -2.0280     1.6644     0.0207 H       
  31 H31           -0.3640     4.0178    -0.5302 H       
  32 H32           -2.3854     5.1066    -1.0687 H       
  33 H33           -2.9616     3.4176    -1.2651 H       
  34 H34           -4.0914     5.1643     0.5580 H       
  35 H35           -4.0106     3.3992     0.8413 H       
  36 H36           -3.6853     5.3498     3.3802 H       
  37 H37            0.4465     4.8632     4.3106 H       
  38 H38            0.8457     3.9574     2.0588 H       
  39 H39           -0.9936     6.2239     5.7164 H       
  40 H40           -2.7185     6.4270     5.3267 H       
  41 H41           -0.2049     4.2353     6.8648 H       
  42 H42           -3.1172     1.7197     8.7031 H       
  43 H43           -4.3386     4.7289     5.9386 H       
  44 H44           -0.7564     1.1610     8.7958 H       
  45 H45            0.4590     2.2106     8.0281 H       
  46 H46            0.4543     2.4455    10.4052 H       
@<TRIPOS>BOND
   1    1    2 1
   2    1    3 2
   3    1    4 am
   4    2   27 1
   5    2   28 1
   6    2   29 1
   7    4    5 1
   8    4   30 1
   9    5    6 1
  10    5   13 1
  11    5   31 1
  12    6    7 1
  13    6   32 1
  14    6   33 1
  15    7    8 1
  16    7   34 1
  17    7   35 1
  18    8    9 ar
  19    8   13 ar
  20    9   10 ar
  21    9   36 1
  22   10   11 ar
  23   10   14 1
  24   11   12 ar
  25   11   37 1
  26   12   13 ar
  27   12   38 1
  28   14   15 1
  29   14   39 1
  30   14   40 1
  31   15   16 ar
  32   15   20 ar
  33   16   17 ar
  34   16   41 1
  35   17   18 ar
  36   17   25 1
  37   18   19 ar
  38   18   42 1
  39   19   20 ar
  40   19   21 1
  41   20   43 1
  42   21   22 1
  43   21   23 1
  44   21   24 1
  45   25   26 1
  46   25   44 1
  47   25   45 1
  48   26   46 1

#	End of record

