#	Name: ASD03092793
#	Creating user name:	WinNT
#	Creation time:	15. 06. 2019 20:33

#	Modifying user name:	WinNT
#	Modification time:	15. 06. 2019 20:33

#	Program:	/corina/corina34_cracker 3.40 0067  02.08.2006

@<TRIPOS>MOLECULE
ASD03092793
  49   51    0    0    0
SMALL
NO_CHARGES


@<TRIPOS>ATOM
   1 C1             0.0168     1.5118     0.0149 C.3     
   2 C2             0.0247    -0.0175    -0.0302 C.3     
   3 C3            -1.3904    -0.5298     0.0491 C.2     
   4 O4            -2.3162     0.2531     0.1335 O.2     
   5 C5            -1.6396    -1.9133     0.0254 C.2     
   6 S6            -0.4085    -3.1635    -0.0853 S.3     
   7 C7            -1.6288    -4.4276    -0.0454 C.2     
   8 C8            -2.8717    -3.8762     0.0464 C.2     
   9 C9            -4.1271    -4.7081     0.1005 C.3     
  10 C10           -2.8911    -2.5001     0.0916 C.2     
  11 C11           -4.1432    -1.7157     0.1972 C.ar    
  12 C12           -4.9297    -1.8037     1.3457 C.ar    
  13 C13           -6.0948    -1.0703     1.4384 C.ar    
  14 C14           -6.4835    -0.2492     0.3949 C.ar    
  15 C15           -5.7078    -0.1581    -0.7470 C.ar    
  16 C16           -4.5374    -0.8818    -0.8490 C.ar    
  17 S17           -7.9729     0.6838     0.5206 S.o2    
  18 N18           -7.5815     2.1428     1.1992 N.am    
  19 O19           -8.3877     0.9587    -0.8104 O.2     
  20 O20           -8.7910     0.0082     1.4658 O.2     
  21 C21           -1.3482    -5.8766    -0.1039 C.ar    
  22 C22           -0.4710    -6.3817    -1.0662 C.ar    
  23 C23           -0.2120    -7.7342    -1.1174 C.ar    
  24 C24           -0.8220    -8.5948    -0.2136 C.ar    
  25 O25           -0.5640    -9.9273    -0.2674 O.3     
  26 C26           -1.2250   -10.7553     0.6915 C.3     
  27 C27           -1.6947    -8.0964     0.7453 C.ar    
  28 C28           -1.9550    -6.7446     0.8066 C.ar    
  29 H29            1.0403     1.8823    -0.0424 H       
  30 H30           -0.5569     1.8971    -0.8280 H       
  31 H31           -0.4387     1.8454     0.9472 H       
  32 H32            0.4802    -0.3512    -0.9625 H       
  33 H33            0.5983    -0.4029     0.8127 H       
  34 H34           -4.3377    -4.9813     1.1345 H       
  35 H35           -4.9617    -4.1329    -0.3005 H       
  36 H36           -3.9900    -5.6118    -0.4933 H       
  37 H37           -4.6277    -2.4449     2.1606 H       
  38 H38           -6.7047    -1.1375     2.3271 H       
  39 H39           -6.0166     0.4843    -1.5584 H       
  40 H40           -3.9302    -0.8062    -1.7389 H       
  41 H41           -8.0962     2.9345     0.9774 H       
  42 H42           -6.8376     2.2057     1.8186 H       
  43 H43            0.0034    -5.7133    -1.7695 H       
  44 H44            0.4660    -8.1256    -1.8614 H       
  45 H45           -0.9318   -11.7939     0.5383 H       
  46 H46           -0.9431   -10.4428     1.6970 H       
  47 H47           -2.3041   -10.6608     0.5708 H       
  48 H48           -2.1670    -8.7689     1.4461 H       
  49 H49           -2.6306    -6.3574     1.5551 H       
@<TRIPOS>BOND
   1    1    2 1
   2    1   29 1
   3    1   30 1
   4    1   31 1
   5    2    3 1
   6    2   32 1
   7    2   33 1
   8    3    4 2
   9    3    5 1
  10    5   10 2
  11    5    6 1
  12    6    7 1
  13    7    8 2
  14    7   21 1
  15    8    9 1
  16    8   10 1
  17    9   34 1
  18    9   35 1
  19    9   36 1
  20   10   11 1
  21   11   16 ar
  22   11   12 ar
  23   12   13 ar
  24   12   37 1
  25   13   14 ar
  26   13   38 1
  27   14   15 ar
  28   14   17 1
  29   15   16 ar
  30   15   39 1
  31   16   40 1
  32   17   18 am
  33   17   19 2
  34   17   20 2
  35   18   41 1
  36   18   42 1
  37   21   28 ar
  38   21   22 ar
  39   22   23 ar
  40   22   43 1
  41   23   24 ar
  42   23   44 1
  43   24   25 1
  44   24   27 ar
  45   25   26 1
  46   26   45 1
  47   26   46 1
  48   26   47 1
  49   27   28 ar
  50   27   48 1
  51   28   49 1

#	End of record

