#	Name: ASD01817048
#	Creating user name:	WinNT
#	Creation time:	15. 06. 2019 19:36

#	Modifying user name:	WinNT
#	Modification time:	15. 06. 2019 19:36

#	Program:	/corina/corina34_cracker 3.40 0067  02.08.2006

@<TRIPOS>MOLECULE
ASD01817048
  52   54    0    0    0
SMALL
NO_CHARGES


@<TRIPOS>ATOM
   1 C1            -0.0341     1.4109     0.1980 C.3     
   2 C2             0.0192    -0.1190     0.0600 C.3     
   3 C3             0.9723    -0.4805    -1.0829 C.3     
   4 C4             0.5547     0.2599    -2.3568 C.3     
   5 C5             0.4643     1.7634    -2.0510 C.3     
   6 C6             1.7495     2.1709    -1.2944 C.3     
   7 C7             1.4195     1.9375     0.1948 C.3     
   8 N8            -0.6193     1.9459    -1.0551 N.am    
   9 C9            -1.8452     2.4731    -1.2442 C.2     
  10 O10           -2.6228     2.5515    -0.3138 O.2     
  11 O11           -2.2081     2.9128    -2.4638 O.3     
  12 N12            2.3416    -0.0926    -0.7187 N.3     
  13 C13            2.9080    -1.0235     0.2665 C.3     
  14 C14            4.3314    -0.5878     0.6202 C.3     
  15 C15            6.1487    -1.3291     2.0642 C.2     
  16 C16            6.7188    -2.2659     3.0557 C.ar    
  17 C17            8.0155    -2.0751     3.5356 C.ar    
  18 C18            8.5414    -2.9527     4.4610 C.ar    
  19 C19            7.7865    -4.0204     4.9132 C.ar    
  20 C20            6.5005    -4.2153     4.4416 C.ar    
  21 C21            5.9606    -3.3418     3.5203 C.ar    
  22 O22            6.8096    -0.3901     1.6651 O.2     
  23 N23            4.8963    -1.5161     1.6027 N.am    
  24 H24           -0.5833     1.7237     1.0861 H       
  25 H25            0.3116     2.3568    -2.9526 H       
  26 C26           -3.5433     3.4685    -2.5939 C.3     
  27 C27           -3.7728     3.9111    -4.0403 C.3     
  28 H28            0.3816    -0.5570     0.9900 H       
  29 H29           -0.9776    -0.5006    -0.1613 H       
  30 H30            0.9354    -1.5555    -1.2596 H       
  31 H31            1.2961     0.0900    -3.1375 H       
  32 H32           -0.4176    -0.1044    -2.6886 H       
  33 H33            2.5858     1.5426    -1.6010 H       
  34 H34            1.9778     3.2218    -1.4725 H       
  35 H35            1.4854     2.8735     0.7495 H       
  36 H36            2.0934     1.1944     0.6210 H       
  37 H37            2.9292    -0.0299    -1.5365 H       
  38 H38            2.2926    -1.0193     1.1661 H       
  39 H39            2.9298    -2.0288    -0.1541 H       
  40 H40            4.9468    -0.5920    -0.2794 H       
  41 H41            4.3096     0.4176     1.0409 H       
  42 H42            8.6061    -1.2424     3.1829 H       
  43 H43            9.5446    -2.8062     4.8332 H       
  44 H44            8.2031    -4.7050     5.6372 H       
  45 H45            5.9164    -5.0507     4.7985 H       
  46 H46            4.9550    -3.4924     3.1562 H       
  47 H47            4.3690    -2.2654     1.9212 H       
  48 H48           -4.2797     2.7114    -2.3243 H       
  49 H49           -3.6456     4.3273    -1.9305 H       
  50 H50           -4.7751     4.3282    -4.1379 H       
  51 H51           -3.0364     4.6681    -4.3099 H       
  52 H52           -3.6705     3.0523    -4.7037 H       
@<TRIPOS>BOND
   1    1    2 1
   2    1    7 1
   3    1    8 1
   4    1   24 1
   5    2    3 1
   6    2   28 1
   7    2   29 1
   8    3    4 1
   9    3   12 1
  10    3   30 1
  11    4    5 1
  12    4   31 1
  13    4   32 1
  14    5    6 1
  15    5    8 1
  16    5   25 1
  17    6    7 1
  18    6   33 1
  19    6   34 1
  20    7   35 1
  21    7   36 1
  22    8    9 am
  23    9   10 2
  24    9   11 1
  25   11   26 1
  26   12   13 1
  27   12   37 1
  28   13   14 1
  29   13   38 1
  30   13   39 1
  31   14   23 1
  32   14   40 1
  33   14   41 1
  34   15   16 1
  35   15   22 2
  36   15   23 am
  37   16   17 ar
  38   16   21 ar
  39   17   18 ar
  40   17   42 1
  41   18   19 ar
  42   18   43 1
  43   19   20 ar
  44   19   44 1
  45   20   21 ar
  46   20   45 1
  47   21   46 1
  48   23   47 1
  49   26   27 1
  50   26   48 1
  51   26   49 1
  52   27   50 1
  53   27   51 1
  54   27   52 1

#	End of record

