#	Name: ASD03240273
#	Creating user name:	WinNT
#	Creation time:	15. 06. 2019 20:34

#	Modifying user name:	WinNT
#	Modification time:	15. 06. 2019 20:34

#	Program:	/corina/corina34_cracker 3.40 0067  02.08.2006

@<TRIPOS>MOLECULE
ASD03240273
 107  112    0    0    0
SMALL
NO_CHARGES


@<TRIPOS>ATOM
   1 C1            -0.1142     1.2189    -0.6117 C.2     
   2 N2            -0.0093    -0.0229    -0.0309 N.pl3   
   3 C3            -3.6698     2.2406    -0.0322 C.3     
   4 C4            -2.4757     1.2898     0.0731 C.3     
   5 N5            -1.3115     1.8938    -0.5798 N.pl3   
   6 N6             0.9230     1.7586    -1.1878 N.2     
   7 N7            -4.8339     1.6366     0.6207 N.pl3   
   8 C8            -6.0433     2.3183     0.6529 C.ar    
   9 C9            -7.1583     1.7397     1.2782 C.ar    
  10 C10           -8.3654     2.4248     1.3086 C.ar    
  11 C11           -8.4626     3.6853     0.7168 C.ar    
  12 C12           -7.3459     4.2541     0.0958 C.ar    
  13 C13           -6.1477     3.5765     0.0706 C.ar    
  14 C14           -9.7432     4.4172     0.7459 C.2     
  15 N15           -9.8370     5.6342     0.1745 N.am    
  16 O16          -10.7142     3.9223     1.2856 O.2     
  17 C17          -11.0777     6.2806     0.1030 C.ar    
  18 C18          -11.1484     7.6625     0.2211 C.ar    
  19 C19          -12.2362     5.5401    -0.0916 C.ar    
  20 C20          -13.4590     6.1772    -0.1626 C.ar    
  21 C21          -13.5304     7.5587    -0.0388 C.ar    
  22 C22          -12.3711     8.2997     0.1506 C.ar    
  23 N23          -14.7694     8.2044    -0.1111 N.pl3   
  24 C24          -14.8447     9.6616     0.0194 C.3     
  25 C25          -15.9915     7.4233    -0.3174 C.3     
  26 C26           -7.0477     0.4005     1.9042 C.ar    
  27 C27           -7.4980     0.2012     3.2092 C.ar    
  28 C28           -7.3957    -1.0433     3.7905 C.ar    
  29 C29           -6.8414    -2.1040     3.0745 C.ar    
  30 C30           -6.3908    -1.9048     1.7699 C.ar    
  31 C31           -6.4987    -0.6619     1.1862 C.ar    
  32 C32          -16.5624     7.0217     1.0182 C.ar    
  33 C33          -14.7187    10.2951    -1.3421 C.ar    
  34 C34          -17.4718     7.8440     1.6567 C.ar    
  35 C35          -17.9954     7.4756     2.8818 C.ar    
  36 C36          -17.6099     6.2847     3.4683 C.ar    
  37 C37          -16.7012     5.4620     2.8295 C.ar    
  38 C38          -16.1809     5.8283     1.6023 C.ar    
  39 C39          -15.8496    10.5362    -2.0996 C.ar    
  40 C40          -15.7340    11.1172    -3.3486 C.ar    
  41 C41          -14.4875    11.4577    -3.8399 C.ar    
  42 C42          -13.3567    11.2174    -3.0820 C.ar    
  43 C43          -13.4727    10.6403    -1.8312 C.ar    
  44 C44          -18.1800     5.8835     4.8044 C.3     
  45 C45          -14.3615    12.0902    -5.2019 C.3     
  46 C46          -13.7085    13.4672    -5.0662 C.3     
  47 C47          -13.4968    11.2019    -6.0987 C.3     
  48 C48          -18.9221     4.5530     4.6636 C.3     
  49 C49          -17.0443     5.7293     5.8179 C.3     
  50 C50           -6.7309    -3.4438     3.7008 C.ar    
  51 C51           -6.1774    -4.5058     2.9876 C.ar    
  52 C52           -6.0770    -5.7504     3.5754 C.ar    
  53 C53           -6.5249    -5.9451     4.8696 C.ar    
  54 C54           -7.0755    -4.8949     5.5820 C.ar    
  55 C55           -7.1748    -3.6444     5.0067 C.ar    
  56 H56            0.8365    -0.4973    -0.0499 H       
  57 H57           -0.7812    -0.4245     0.3978 H       
  58 H58           -3.4274     3.1838     0.4574 H       
  59 H59           -3.8967     2.4241    -1.0824 H       
  60 H60           -2.2488     1.1063     1.1233 H       
  61 H61           -2.7181     0.3466    -0.4165 H       
  62 H62           -1.3855     2.7699    -0.9895 H       
  63 H63            1.7688     1.2841    -1.2068 H       
  64 H64           -4.7600     0.7605     1.0304 H       
  65 H65           -9.2266     1.9837     1.7883 H       
  66 H66           -7.4228     5.2292    -0.3620 H       
  67 H67           -5.2884     4.0201    -0.4102 H       
  68 H68           -9.0454     6.0624    -0.1872 H       
  69 H69          -10.2469     8.2387     0.3684 H       
  70 H70          -12.1806     4.4659    -0.1878 H       
  71 H71          -14.3599     5.6013    -0.3146 H       
  72 H72          -12.4265     9.3740     0.2469 H       
  73 H73          -15.8019     9.9379     0.4615 H       
  74 H74          -14.0345    10.0114     0.6593 H       
  75 H75          -16.7212     8.0263    -0.8579 H       
  76 H76          -15.7583     6.5298    -0.8963 H       
  77 H77           -7.9266     1.0228     3.7639 H       
  78 H78           -7.7443    -1.1976     4.8010 H       
  79 H79           -5.9613    -2.7262     1.2157 H       
  80 H80           -6.1501    -0.5077     0.1757 H       
  81 H81          -17.7730     8.7745     1.1985 H       
  82 H82          -18.7054     8.1184     3.3810 H       
  83 H83          -16.3997     4.5317     3.2879 H       
  84 H84          -15.4709     5.1855     1.1032 H       
  85 H85          -16.8234    10.2702    -1.7158 H       
  86 H86          -16.6175    11.3049    -3.9407 H       
  87 H87          -12.3828    11.4831    -3.4660 H       
  88 H88          -12.5892    10.4527    -1.2391 H       
  89 H89          -18.8728     6.6512     5.1491 H       
  90 H90          -15.3514    12.1995    -5.6448 H       
  91 H91          -12.7186    13.3579    -4.6233 H       
  92 H92          -13.6174    13.9247    -6.0513 H       
  93 H93          -14.3245    14.1000    -4.4273 H       
  94 H94          -13.9620    10.2209    -6.1953 H       
  95 H95          -13.4056    11.6594    -7.0838 H       
  96 H96          -12.5069    11.0926    -5.6558 H       
  97 H97          -18.2293     3.7853     4.3189 H       
  98 H98          -19.3344     4.2628     5.6299 H       
  99 H99          -19.7312     4.6628     3.9415 H       
 100 H100         -16.5156     6.6772     5.9183 H       
 101 H101         -17.4566     5.4392     6.7843 H       
 102 H102         -16.3515     4.9616     5.4733 H       
 103 H103          -5.8280    -4.3550     1.9769 H       
 104 H104          -5.6484    -6.5740     3.0238 H       
 105 H105          -6.4447    -6.9208     5.3256 H       
 106 H106          -7.4239    -5.0527     6.5920 H       
 107 H107          -7.6048    -2.8251     5.5638 H       
@<TRIPOS>BOND
   1    1    2 1
   2    1    6 2
   3    1    5 1
   4    2   56 1
   5    2   57 1
   6    3    4 1
   7    3    7 1
   8    3   58 1
   9    3   59 1
  10    4    5 1
  11    4   60 1
  12    4   61 1
  13    5   62 1
  14    6   63 1
  15    7    8 1
  16    7   64 1
  17    8    9 ar
  18    8   13 ar
  19    9   10 ar
  20    9   26 1
  21   10   11 ar
  22   10   65 1
  23   11   12 ar
  24   11   14 1
  25   12   13 ar
  26   12   66 1
  27   13   67 1
  28   14   15 am
  29   14   16 2
  30   15   17 1
  31   15   68 1
  32   17   18 ar
  33   17   19 ar
  34   18   22 ar
  35   18   69 1
  36   19   20 ar
  37   19   70 1
  38   20   21 ar
  39   20   71 1
  40   21   22 ar
  41   21   23 1
  42   22   72 1
  43   23   24 1
  44   23   25 1
  45   24   33 1
  46   24   73 1
  47   24   74 1
  48   25   32 1
  49   25   75 1
  50   25   76 1
  51   26   27 ar
  52   26   31 ar
  53   27   28 ar
  54   27   77 1
  55   28   29 ar
  56   28   78 1
  57   29   30 ar
  58   29   50 1
  59   30   31 ar
  60   30   79 1
  61   31   80 1
  62   32   34 ar
  63   32   38 ar
  64   33   39 ar
  65   33   43 ar
  66   34   35 ar
  67   34   81 1
  68   35   36 ar
  69   35   82 1
  70   36   37 ar
  71   36   44 1
  72   37   38 ar
  73   37   83 1
  74   38   84 1
  75   39   40 ar
  76   39   85 1
  77   40   41 ar
  78   40   86 1
  79   41   42 ar
  80   41   45 1
  81   42   43 ar
  82   42   87 1
  83   43   88 1
  84   44   48 1
  85   44   49 1
  86   44   89 1
  87   45   46 1
  88   45   47 1
  89   45   90 1
  90   46   91 1
  91   46   92 1
  92   46   93 1
  93   47   94 1
  94   47   95 1
  95   47   96 1
  96   48   97 1
  97   48   98 1
  98   48   99 1
  99   49  100 1
 100   49  101 1
 101   49  102 1
 102   50   51 ar
 103   50   55 ar
 104   51   52 ar
 105   51  103 1
 106   52   53 ar
 107   52  104 1
 108   53   54 ar
 109   53  105 1
 110   54   55 ar
 111   54  106 1
 112   55  107 1

#	End of record

