#	Name: ASD00431157
#	Creating user name:	WinNT
#	Creation time:	15. 06. 2019 18:35

#	Modifying user name:	WinNT
#	Modification time:	15. 06. 2019 18:35

#	Program:	/corina/corina34_cracker 3.40 0067  02.08.2006

@<TRIPOS>MOLECULE
ASD00431157
  46   49    0    0    0
SMALL
NO_CHARGES


@<TRIPOS>ATOM
   1 C1            -0.0119     0.9368     0.6594 C.2     
   2 N2             0.2341    -0.3883     0.6722 N.am    
   3 O3             0.8778     1.7211     0.3603 O.co2   
   4 O4            -1.1261     1.3548     0.9419 O.co2   
   5 C5             1.5670    -0.8892     0.3280 C.3     
   6 C6             2.4594    -0.8602     1.5704 C.3     
   7 O7             0.6580    -3.2670     0.3059 O.3     
   8 N8             0.7833    -4.3048    -0.3016 N.2     
   9 C9             1.6686    -4.1910    -1.2645 C.2     
  10 C10            2.1427    -2.8482    -1.2072 C.2     
  11 C11            1.4565    -2.3044    -0.1782 C.2     
  12 S12            3.2808    -5.0617    -3.4984 S.3     
  13 C13            3.0458    -6.6908    -3.9599 C.2     
  14 N14            2.1588    -7.2515    -3.1968 N.2     
  15 C15            1.6247    -6.5083    -2.2526 C.2     
  16 C16            2.0879    -5.2414    -2.2144 C.2     
  17 O17            3.6930    -7.3080    -4.9769 O.3     
  18 C18            3.3220    -8.5774    -5.2926 C.ar    
  19 C19            2.1495    -8.8019    -5.9994 C.ar    
  20 C20            1.7727   -10.0914    -6.3200 C.ar    
  21 C21            2.5665   -11.1619    -5.9353 C.ar    
  22 C22            3.7388   -10.9375    -5.2286 C.ar    
  23 C23            4.1187    -9.6477    -4.9128 C.ar    
  24 O24            2.1953   -12.4314    -6.2506 O.3     
  25 C25            3.0602   -13.4855    -5.8228 C.3     
  26 C26            2.4819   -14.8310    -6.2656 C.3     
  27 C27            3.3233   -16.0819    -6.0042 C.3     
  28 C28            2.0679   -15.8166    -5.1709 C.3     
  29 H29           -0.4715    -1.0102     0.9094 H       
  30 H30            2.0029    -0.2591    -0.4473 H       
  31 H31            2.0234    -1.4903     2.3457 H       
  32 H32            3.4511    -1.2330     1.3143 H       
  33 H33            2.5393     0.1634     1.9365 H       
  34 H34            2.8795    -2.3751    -1.8395 H       
  35 H35            0.8787    -6.8803    -1.5660 H       
  36 H36            1.5313    -7.9685    -6.2986 H       
  37 H37            0.8598   -10.2663    -6.8699 H       
  38 H38            4.3566   -11.7711    -4.9288 H       
  39 H39            5.0337    -9.4726    -4.3665 H       
  40 H40            4.0460   -13.3496    -6.2676 H       
  41 H41            3.1460   -13.4667    -4.7364 H       
  42 H42            1.8829   -14.8086    -7.1759 H       
  43 H43            3.2775   -16.8826    -6.7424 H       
  44 H44            4.2888   -15.9462    -5.5168 H       
  45 H45            2.2074   -15.5063    -4.1354 H       
  46 H46            1.1961   -16.4427    -5.3609 H       
@<TRIPOS>BOND
   1    1    2 am
   2    1    3 ar
   3    1    4 ar
   4    2    5 1
   5    2   29 1
   6    5    6 1
   7    5   11 1
   8    5   30 1
   9    6   31 1
  10    6   32 1
  11    6   33 1
  12    7    8 1
  13    7   11 1
  14    8    9 2
  15    9   10 1
  16    9   16 1
  17   10   11 2
  18   10   34 1
  19   12   13 1
  20   12   16 1
  21   13   14 2
  22   13   17 1
  23   14   15 1
  24   15   16 2
  25   15   35 1
  26   17   18 1
  27   18   19 ar
  28   18   23 ar
  29   19   20 ar
  30   19   36 1
  31   20   21 ar
  32   20   37 1
  33   21   22 ar
  34   21   24 1
  35   22   23 ar
  36   22   38 1
  37   23   39 1
  38   24   25 1
  39   25   26 1
  40   25   40 1
  41   25   41 1
  42   26   27 1
  43   26   28 1
  44   26   42 1
  45   27   28 1
  46   27   43 1
  47   27   44 1
  48   28   45 1
  49   28   46 1

#	End of record

