#	Name: ASD01884015
#	Creating user name:	WinNT
#	Creation time:	15. 06. 2019 19:47

#	Modifying user name:	WinNT
#	Modification time:	15. 06. 2019 19:47

#	Program:	/corina/corina34_cracker 3.40 0067  02.08.2006

@<TRIPOS>MOLECULE
ASD01884015
  57   60    0    0    0
SMALL
NO_CHARGES


@<TRIPOS>ATOM
   1 C1             0.3805     1.9053    -0.0641 C.3     
   2 C2             0.2794     0.3788    -0.0445 C.3     
   3 C3             0.9487    -0.1927    -1.2961 C.3     
   4 C4             0.8476    -1.7193    -1.2765 C.3     
   5 N5             1.4884    -2.2665    -2.4749 N.am    
   6 C6             0.6894    -2.4599    -3.6794 C.3     
   7 C7             1.4392    -2.0651    -4.9514 C.3     
   8 N8             2.7853    -2.6443    -4.9163 N.pl3   
   9 C9             3.4482    -2.8752    -3.7174 C.2     
  10 C10            4.6800    -3.3942    -4.0000 C.2     
  11 C11            4.7770    -3.4966    -5.3904 C.2     
  12 C12            3.5927    -3.0314    -5.9313 C.2     
  13 C13            3.2643    -2.9685    -7.3704 C.ar    
  14 C14            3.9610    -3.7667    -8.2820 C.ar    
  15 C15            3.6569    -3.7101    -9.6247 C.ar    
  16 C16            2.6571    -2.8589   -10.0757 C.ar    
  17 N17            2.1362    -2.5871   -11.3372 N.am    
  18 C18            2.5713    -3.2012   -12.5941 C.3     
  19 C19            1.7491    -4.4647   -12.8558 C.3     
  20 O20            0.3808    -4.1083   -13.0629 O.3     
  21 C21           -0.4778    -5.2219   -13.3171 C.3     
  22 C22            1.1646    -1.6647   -11.2067 C.2     
  23 O23            0.5055    -1.2074   -12.1216 O.2     
  24 N24            1.0319    -1.3249    -9.9108 N.am    
  25 C25            0.0782    -0.3519    -9.3725 C.3     
  26 C26            1.9563    -2.0577    -9.1688 C.ar    
  27 C27            2.2546    -2.1163    -7.8195 C.ar    
  28 C28            2.8065    -2.5729    -2.4337 C.2     
  29 O29            3.4260    -2.6003    -1.3862 O.2     
  30 H30            1.4298     2.1997    -0.0815 H       
  31 H31           -0.1200     2.2912    -0.9521 H       
  32 H32           -0.0964     2.3124     0.8276 H       
  33 H33            0.7798    -0.0072     0.8435 H       
  34 H34           -0.7700     0.0843    -0.0271 H       
  35 H35            0.4482     0.1932    -2.1841 H       
  36 H36            1.9980     0.1017    -1.3135 H       
  37 H37            1.3480    -2.1052    -0.3885 H       
  38 H38           -0.2018    -2.0137    -1.2591 H       
  39 H39            0.4059    -3.5101    -3.7493 H       
  40 H40           -0.2155    -1.8572    -3.6025 H       
  41 H41            0.9030    -2.4422    -5.8222 H       
  42 H42            1.5115    -0.9790    -5.0093 H       
  43 H43            5.4377    -3.6729    -3.2827 H       
  44 H44            5.6253    -3.8721    -5.9434 H       
  45 H45            4.7395    -4.4290    -7.9333 H       
  46 H46            4.1969    -4.3281   -10.3268 H       
  47 H47            2.4248    -2.4964   -13.4126 H       
  48 H48            3.6271    -3.4628   -12.5244 H       
  49 H49            2.1313    -4.9696   -13.7430 H       
  50 H50            1.8248    -5.1318   -11.9971 H       
  51 H51           -0.1418    -5.7425   -14.2138 H       
  52 H52           -0.4483    -5.9047   -12.4680 H       
  53 H53           -1.4983    -4.8679   -13.4633 H       
  54 H54           -0.5163     0.0628   -10.1866 H       
  55 H55           -0.5796    -0.8454    -8.6570 H       
  56 H56            0.6208     0.4509    -8.8733 H       
  57 H57            1.7115    -1.5016    -7.1169 H       
@<TRIPOS>BOND
   1    1    2 1
   2    1   30 1
   3    1   31 1
   4    1   32 1
   5    2    3 1
   6    2   33 1
   7    2   34 1
   8    3    4 1
   9    3   35 1
  10    3   36 1
  11    4    5 1
  12    4   37 1
  13    4   38 1
  14    5   28 am
  15    5    6 1
  16    6    7 1
  17    6   39 1
  18    6   40 1
  19    7    8 1
  20    7   41 1
  21    7   42 1
  22    8   12 1
  23    8    9 1
  24    9   10 2
  25    9   28 1
  26   10   11 1
  27   10   43 1
  28   11   12 2
  29   11   44 1
  30   12   13 1
  31   13   27 ar
  32   13   14 ar
  33   14   15 ar
  34   14   45 1
  35   15   16 ar
  36   15   46 1
  37   16   26 ar
  38   16   17 1
  39   17   18 1
  40   17   22 am
  41   18   19 1
  42   18   47 1
  43   18   48 1
  44   19   20 1
  45   19   49 1
  46   19   50 1
  47   20   21 1
  48   21   51 1
  49   21   52 1
  50   21   53 1
  51   22   23 2
  52   22   24 am
  53   24   25 1
  54   24   26 1
  55   25   54 1
  56   25   55 1
  57   25   56 1
  58   26   27 ar
  59   27   57 1
  60   28   29 2

#	End of record

