#	Name: ASD02170002
#	Creating user name:	WinNT
#	Creation time:	15. 06. 2019 20:18

#	Modifying user name:	WinNT
#	Modification time:	15. 06. 2019 20:18

#	Program:	/corina/corina34_cracker 3.40 0067  02.08.2006

@<TRIPOS>MOLECULE
ASD02170002
  34   35    0    0    0
SMALL
NO_CHARGES


@<TRIPOS>ATOM
   1 N1            -0.0085     1.4513    -0.0966 N.am    
   2 C2            -0.0226     0.0751    -0.0121 C.2     
   3 N3             1.0187    -0.6028     0.3747 N.2     
   4 C4             2.2388     0.0911     0.7643 C.3     
   5 C5             2.4365     1.3202    -0.1272 C.3     
   6 C6             1.1652     2.1246    -0.1207 C.2     
   7 N7             3.4284    -0.7571     0.6707 N.3     
   8 C8             4.6096    -0.0142     1.1431 C.3     
   9 C9             4.7972     1.2598     0.3196 C.3     
  10 N10            3.5793     2.0866     0.3747 N.3     
  11 C11            5.9765     2.0568     0.8808 C.3     
  12 C12            7.2635     1.2454     0.7193 C.3     
  13 C13            8.4557     2.0810     1.1897 C.3     
  14 O14            5.7535     2.3255     2.2665 O.3     
  15 O15            7.4382     0.8980    -0.6557 O.3     
  16 O16            1.1914     3.3368    -0.1362 O.2     
  17 N17           -1.1715    -0.6012    -0.3462 N.pl3   
  18 H18            5.0056     0.9926    -0.7164 H       
  19 H19           -0.8452     1.9398    -0.1430 H       
  20 H20            2.1397     0.4211     1.7984 H       
  21 H21            2.6520     0.9955    -1.1452 H       
  22 H22            3.3055    -1.6112     1.1936 H       
  23 H23            4.4741     0.2504     2.1918 H       
  24 H24            5.4949    -0.6423     1.0432 H       
  25 H25            3.6988     2.9416    -0.1475 H       
  26 H26            6.0699     2.9979     0.3387 H       
  27 H27            7.1977     0.3369     1.3181 H       
  28 H28            9.3726     1.5029     1.0747 H       
  29 H29            8.5215     2.9894     0.5910 H       
  30 H30            8.3224     2.3459     2.2386 H       
  31 H31            5.6606     1.5318     2.8110 H       
  32 H32            8.2363     0.3813    -0.8326 H       
  33 H33           -1.9563    -0.1104    -0.6361 H       
  34 H34           -1.1976    -1.5693    -0.2921 H       
@<TRIPOS>BOND
   1    1    2 1
   2    1    6 am
   3    1   19 1
   4    2    3 2
   5    2   17 1
   6    3    4 1
   7    4    5 1
   8    4    7 1
   9    4   20 1
  10    5    6 1
  11    5   10 1
  12    5   21 1
  13    6   16 2
  14    7    8 1
  15    7   22 1
  16    8    9 1
  17    8   23 1
  18    8   24 1
  19    9   10 1
  20    9   11 1
  21    9   18 1
  22   10   25 1
  23   11   12 1
  24   11   14 1
  25   11   26 1
  26   12   13 1
  27   12   15 1
  28   12   27 1
  29   13   28 1
  30   13   29 1
  31   13   30 1
  32   14   31 1
  33   15   32 1
  34   17   33 1
  35   17   34 1

#	End of record

