#	Name: ASD03430422
#	Creating user name:	WinNT
#	Creation time:	15. 06. 2019 20:41

#	Modifying user name:	WinNT
#	Modification time:	15. 06. 2019 20:41

#	Program:	/corina/corina34_cracker 3.40 0067  02.08.2006

@<TRIPOS>MOLECULE
ASD03430422
  61   66    0    0    0
SMALL
NO_CHARGES


@<TRIPOS>ATOM
   1 O1             2.5751     0.1038     1.2923 O.3     
   2 C2             3.0958    -1.2221     1.4168 C.3     
   3 C3             4.2908    -1.2128     2.3359 C.2     
   4 N4             5.0843    -0.1211     2.3923 N.am    
   5 C5             4.7557     0.9990     1.6156 C.ar    
   6 C6             3.4780     1.0966     1.0662 C.ar    
   7 C7             5.6844     2.0013     1.3927 C.ar    
   8 C8             5.3386     3.1021     0.6221 C.ar    
   9 C9             4.0668     3.1974     0.0773 C.ar    
  10 C10            3.1383     2.1961     0.2985 C.ar    
  11 O11            4.5390    -2.1820     3.0217 O.2     
  12 C12            6.2701    -0.1075     3.2525 C.3     
  13 O13            6.2477     4.0889     0.4011 O.3     
  14 N14            4.7824     6.4164    -0.5906 N.am    
  15 C15            3.8598     5.6708     0.0406 C.2     
  16 C16            3.6953     4.3953    -0.7582 C.3     
  17 C17            4.6596     4.5567    -1.9107 C.ar    
  18 C18            4.9820     3.7532    -2.9813 C.ar    
  19 C19            5.9263     4.1749    -3.9009 C.ar    
  20 C20            6.5425     5.4027    -3.7404 C.ar    
  21 C21            6.2213     6.2095    -2.6688 C.ar    
  22 C22            5.2713     5.7918    -1.7385 C.ar    
  23 O23            3.2701     5.9643     1.0590 O.2     
  24 O24            2.3544     4.2738    -1.2369 O.3     
  25 C25            5.2202     7.7364    -0.1299 C.3     
  26 C26            5.1317     8.7204    -1.2678 C.ar    
  27 C27            6.1381     9.6488    -1.4586 C.ar    
  28 C28            6.0569    10.5514    -2.5024 C.ar    
  29 C29            4.9696    10.5255    -3.3557 C.ar    
  30 C30            3.9637     9.5966    -3.1654 C.ar    
  31 C31            4.0470     8.6911    -2.1242 C.ar    
  32 C32            4.3336     8.1937     0.9997 C.ar    
  33 C33            4.8721     8.4210     2.2524 C.ar    
  34 C34            4.0588     8.8404     3.2886 C.ar    
  35 C35            2.7072     9.0329     3.0719 C.ar    
  36 C36            2.1689     8.8065     1.8190 C.ar    
  37 C37            2.9829     8.3912     0.7817 C.ar    
  38 H38            2.3272    -1.8767     1.8277 H       
  39 H39            3.3961    -1.5878     0.4349 H       
  40 H40            6.6745     1.9268     1.8174 H       
  41 H41            2.1487     2.2731    -0.1272 H       
  42 H42            6.3535    -1.0624     3.7714 H       
  43 H43            7.1592     0.0537     2.6430 H       
  44 H44            6.1798     0.6964     3.9831 H       
  45 H45            6.7901     3.9545    -0.3880 H       
  46 H46            4.4989     2.7950    -3.1030 H       
  47 H47            6.1816     3.5468    -4.7416 H       
  48 H48            7.2796     5.7314    -4.4581 H       
  49 H49            6.7068     7.1669    -2.5504 H       
  50 H50            1.6920     4.1982    -0.5365 H       
  51 H51            6.2511     7.6760     0.2190 H       
  52 H52            6.9875     9.6690    -0.7920 H       
  53 H53            6.8428    11.2772    -2.6510 H       
  54 H54            4.9059    11.2312    -4.1707 H       
  55 H55            3.1141     9.5765    -3.8319 H       
  56 H56            3.2629     7.9629    -1.9778 H       
  57 H57            5.9281     8.2706     2.4217 H       
  58 H58            4.4794     9.0173     4.2675 H       
  59 H59            2.0717     9.3599     3.8816 H       
  60 H60            1.1129     8.9566     1.6498 H       
  61 H61            2.5630     8.2179    -0.1981 H       
@<TRIPOS>BOND
   1    1    2 1
   2    1    6 1
   3    2    3 1
   4    2   38 1
   5    2   39 1
   6    3    4 am
   7    3   11 2
   8    4    5 1
   9    4   12 1
  10    5    6 ar
  11    5    7 ar
  12    6   10 ar
  13    7    8 ar
  14    7   40 1
  15    8    9 ar
  16    8   13 1
  17    9   10 ar
  18    9   16 1
  19   10   41 1
  20   12   42 1
  21   12   43 1
  22   12   44 1
  23   13   45 1
  24   14   15 am
  25   14   22 1
  26   14   25 1
  27   15   16 1
  28   15   23 2
  29   16   17 1
  30   16   24 1
  31   17   18 ar
  32   17   22 ar
  33   18   19 ar
  34   18   46 1
  35   19   20 ar
  36   19   47 1
  37   20   21 ar
  38   20   48 1
  39   21   22 ar
  40   21   49 1
  41   24   50 1
  42   25   26 1
  43   25   32 1
  44   25   51 1
  45   26   27 ar
  46   26   31 ar
  47   27   28 ar
  48   27   52 1
  49   28   29 ar
  50   28   53 1
  51   29   30 ar
  52   29   54 1
  53   30   31 ar
  54   30   55 1
  55   31   56 1
  56   32   33 ar
  57   32   37 ar
  58   33   34 ar
  59   33   57 1
  60   34   35 ar
  61   34   58 1
  62   35   36 ar
  63   35   59 1
  64   36   37 ar
  65   36   60 1
  66   37   61 1

#	End of record

