#	Name: ASD05430634
#	Creating user name:	WinNT
#	Creation time:	15. 06. 2019 21:00

#	Modifying user name:	WinNT
#	Modification time:	15. 06. 2019 21:00

#	Program:	/corina/corina34_cracker 3.40 0067  02.08.2006

@<TRIPOS>MOLECULE
ASD05430634
  42   44    0    0    0
SMALL
NO_CHARGES


@<TRIPOS>ATOM
   1 C1            -0.0105     1.3598     0.1331 C.ar    
   2 C2             0.0094    -0.0036     0.0081 C.ar    
   3 C3             1.2336    -0.6601    -0.1044 C.ar    
   4 C4             2.3979     0.0827    -0.0871 C.ar    
   5 C5             2.3631     1.4572     0.0292 C.ar    
   6 C6             1.1500     2.1294     0.1321 C.ar    
   7 C7             3.6523     2.2376     0.0448 C.3     
   8 C8             4.5089     1.7836     1.2284 C.3     
   9 C9             4.4132     1.9916    -1.2596 C.3     
  10 N10           -1.1891    -0.7317    -0.0059 N.pl3   
  11 C11           -2.2358    -0.5476    -0.8518 C.2     
  12 C12           -1.5232    -1.7676     0.8277 C.2     
  13 C13           -2.7555    -2.1749     0.4689 C.2     
  14 N14           -3.1658    -1.4145    -0.5569 N.2     
  15 C15           -3.5367    -3.2947     1.1069 C.3     
  16 C16            0.8588     3.6013     0.2224 C.3     
  17 O17           -0.4155     3.9527     0.7864 O.3     
  18 Si18          -1.3577     2.6553     0.3559 Si      
  19 C19           -2.2665     2.9735    -1.2389 C.3     
  20 C20           -2.5343     2.1856     1.7219 C.3     
  21 H21            1.2714    -1.7348    -0.2035 H       
  22 H22            3.3505    -0.4202    -0.1654 H       
  23 H23            3.4323     3.3007     0.1422 H       
  24 H24            5.4413     2.3480     1.2397 H       
  25 H25            3.9668     1.9588     2.1577 H       
  26 H26            4.7289     0.7204     1.1310 H       
  27 H27            3.8029     2.3151    -2.1028 H       
  28 H28            5.3456     2.5560    -1.2482 H       
  29 H29            4.6332     0.9285    -1.3569 H       
  30 H30           -2.2896     0.1924    -1.6366 H       
  31 H31           -0.9147    -2.1783     1.6199 H       
  32 H32           -4.1387    -2.8979     1.9244 H       
  33 H33           -4.1897    -3.7517     0.3633 H       
  34 H34           -2.8467    -4.0443     1.4943 H       
  35 H35            1.6383     4.0662     0.8261 H       
  36 H36            0.9142     4.0215    -0.7818 H       
  37 H37           -1.5469     3.1578    -2.0366 H       
  38 H38           -2.8735     2.1040    -1.4910 H       
  39 H39           -2.9108     3.8449    -1.1223 H       
  40 H40           -3.1256     3.0556     2.0072 H       
  41 H41           -3.1976     1.3938     1.3738 H       
  42 H42           -1.9681     1.8326     2.5838 H       
@<TRIPOS>BOND
   1    1    2 ar
   2    1    6 ar
   3    1   18 1
   4    2    3 ar
   5    2   10 1
   6    3    4 ar
   7    3   21 1
   8    4    5 ar
   9    4   22 1
  10    5    6 ar
  11    5    7 1
  12    6   16 1
  13    7    8 1
  14    7    9 1
  15    7   23 1
  16    8   24 1
  17    8   25 1
  18    8   26 1
  19    9   27 1
  20    9   28 1
  21    9   29 1
  22   10   11 1
  23   10   12 1
  24   11   14 2
  25   11   30 1
  26   12   13 2
  27   12   31 1
  28   13   14 1
  29   13   15 1
  30   15   32 1
  31   15   33 1
  32   15   34 1
  33   16   17 1
  34   16   35 1
  35   16   36 1
  36   17   18 1
  37   18   19 1
  38   18   20 1
  39   19   37 1
  40   19   38 1
  41   19   39 1
  42   20   40 1
  43   20   41 1
  44   20   42 1

#	End of record

