#	Name: ASD03082125
#	Creating user name:	WinNT
#	Creation time:	15. 06. 2019 20:27

#	Modifying user name:	WinNT
#	Modification time:	15. 06. 2019 20:27

#	Program:	/corina/corina34_cracker 3.40 0067  02.08.2006

@<TRIPOS>MOLECULE
ASD03082125
  54   57    0    0    0
SMALL
NO_CHARGES


@<TRIPOS>ATOM
   1 C1             0.0444     1.6894     0.0468 C.ar    
   2 C2            -0.1353     0.4014    -0.4412 C.ar    
   3 C3            -1.3816    -0.1908    -0.3805 C.ar    
   4 C4            -2.4498     0.4972     0.1649 C.ar    
   5 C5            -2.2745     1.7800     0.6514 C.ar    
   6 C6            -1.0298     2.3755     0.5999 C.ar    
   7 F7            -4.5850     1.7213     1.1917 F       
   8 F8            -3.1604     2.8498     2.5761 F       
   9 C9            -3.4419     2.5261     1.2444 C.3     
  10 F10           -3.6638     3.6998     0.5161 F       
  11 N11            1.3039     2.2916    -0.0130 N.pl3   
  12 C12            2.4568     1.5100     0.0846 C.2     
  13 N13            2.4851     0.1991     0.3325 N.2     
  14 N14            3.6871     1.9455    -0.0584 N.2     
  15 N15            4.5358     0.8406     0.1165 N.pl3   
  16 C16            3.7344    -0.2216     0.3572 C.2     
  17 C17            5.9992     0.8383     0.0478 C.3     
  18 C18            6.5662     1.1823     1.4010 C.2     
  19 C19            4.1804    -1.6095     0.6055 C.ar    
  20 C20            5.4778    -1.8576     1.0543 C.ar    
  21 C21            5.8925    -3.1577     1.2855 C.ar    
  22 C22            5.0137    -4.2155     1.0728 C.ar    
  23 C23            3.7226    -3.9675     0.6248 C.ar    
  24 C24            3.3028    -2.6744     0.3968 C.ar    
  25 C25            8.0589     1.2469     1.5982 C.3     
  26 C26            8.3659     1.6133     3.0516 C.3     
  27 C27            9.8585     1.6778     3.2489 C.2     
  28 O28            5.8245     1.4064     2.3272 O.2     
  29 N29           10.3656     1.9855     4.4591 N.am    
  30 O30           10.6034     1.4528     2.3186 O.2     
  31 O31            7.1640    -3.3845     1.7158 O.3     
  32 C32            7.4289    -4.6673     2.2937 C.3     
  33 C33            6.8112    -5.7399     1.3865 C.3     
  34 O34            5.4025    -5.4992     1.3026 O.3     
  35 H35            0.6985    -0.1362    -0.8680 H       
  36 H36           -1.5220    -1.1922    -0.7598 H       
  37 H37           -3.4234     0.0319     0.2108 H       
  38 H38           -0.8936     3.3772     0.9800 H       
  39 H39            1.3773     3.2526    -0.1224 H       
  40 H40            6.3473    -0.1504    -0.2514 H       
  41 H41            6.3297     1.5764    -0.6831 H       
  42 H42            6.1583    -1.0357     1.2210 H       
  43 H43            3.0436    -4.7907     0.4582 H       
  44 H44            2.2980    -2.4860     0.0487 H       
  45 H45            8.4981     0.2763     1.3677 H       
  46 H46            8.4805     2.0030     0.9360 H       
  47 H47            7.9266     2.5839     3.2821 H       
  48 H48            7.9442     0.8572     3.7138 H       
  49 H49            9.7698     2.1655     5.2031 H       
  50 H50           11.3264     2.0271     4.5861 H       
  51 H51            8.5053    -4.8226     2.3663 H       
  52 H52            6.9812    -4.7229     3.2860 H       
  53 H53            7.2542    -5.6800     0.3923 H       
  54 H54            6.9907    -6.7278     1.8105 H       
@<TRIPOS>BOND
   1    1    2 ar
   2    1   11 1
   3    1    6 ar
   4    2    3 ar
   5    2   35 1
   6    3    4 ar
   7    3   36 1
   8    4    5 ar
   9    4   37 1
  10    5    6 ar
  11    5    9 1
  12    6   38 1
  13    7    9 1
  14    8    9 1
  15    9   10 1
  16   11   12 1
  17   11   39 1
  18   12   13 1
  19   12   14 2
  20   13   16 2
  21   14   15 1
  22   15   16 1
  23   15   17 1
  24   16   19 1
  25   17   18 1
  26   17   40 1
  27   17   41 1
  28   18   25 1
  29   18   28 2
  30   19   20 ar
  31   19   24 ar
  32   20   21 ar
  33   20   42 1
  34   21   22 ar
  35   21   31 1
  36   22   23 ar
  37   22   34 1
  38   23   24 ar
  39   23   43 1
  40   24   44 1
  41   25   26 1
  42   25   45 1
  43   25   46 1
  44   26   27 1
  45   26   47 1
  46   26   48 1
  47   27   29 am
  48   27   30 2
  49   29   49 1
  50   29   50 1
  51   31   32 1
  52   32   33 1
  53   32   51 1
  54   32   52 1
  55   33   34 1
  56   33   53 1
  57   33   54 1

#	End of record

