#	Name: ASD01811392
#	Creating user name:	WinNT
#	Creation time:	15. 06. 2019 19:26

#	Modifying user name:	WinNT
#	Modification time:	15. 06. 2019 19:26

#	Program:	/corina/corina34_cracker 3.40 0067  02.08.2006

@<TRIPOS>MOLECULE
ASD01811392
  20   20    0    0    0
SMALL
NO_CHARGES


@<TRIPOS>ATOM
   1 C1            -0.0168     1.3872     0.0097 C.ar    
   2 C2             0.0021    -0.0041     0.0020 C.ar    
   3 C3             1.2223    -0.6652    -0.0132 C.ar    
   4 C4             2.3825     0.0874    -0.0202 C.ar    
   5 C5             2.2931     1.4791    -0.0118 C.ar    
   6 N6             1.1168     2.0797     0.0026 N.ar    
   7 C7            -1.3137     2.1032     0.0197 C.2     
   8 O8            -2.3543     1.4755     0.0212 O.2     
   9 N9            -1.3395     3.4507     0.0271 N.am    
  10 C10            3.7290    -0.5891    -0.0361 C.3     
  11 N11            3.4545     2.2425    -0.0188 N.pl3   
  12 H12           -0.9220    -0.5630     0.0082 H       
  13 H13            1.2649    -1.7443    -0.0190 H       
  14 H14           -0.5090     3.9517     0.0259 H       
  15 H15           -2.1887     3.9195     0.0337 H       
  16 H16            4.0441    -0.7470    -1.0676 H       
  17 H17            4.4580     0.0405     0.4741 H       
  18 H18            3.6589    -1.5500     0.4735 H       
  19 H19            4.3211     1.8069    -0.0294 H       
  20 H20            3.3984     3.2108    -0.0131 H       
@<TRIPOS>BOND
   1    1    2 ar
   2    1    6 ar
   3    1    7 1
   4    2    3 ar
   5    2   12 1
   6    3    4 ar
   7    3   13 1
   8    4    5 ar
   9    4   10 1
  10    5    6 ar
  11    5   11 1
  12    7    8 2
  13    7    9 am
  14    9   14 1
  15    9   15 1
  16   10   16 1
  17   10   17 1
  18   10   18 1
  19   11   19 1
  20   11   20 1

#	End of record

