#	Name: ASD02408382
#	Creating user name:	WinNT
#	Creation time:	15. 06. 2019 20:21

#	Modifying user name:	WinNT
#	Modification time:	15. 06. 2019 20:21

#	Program:	/corina/corina34_cracker 3.40 0067  02.08.2006

@<TRIPOS>MOLECULE
ASD02408382
  28   29    0    0    0
SMALL
NO_CHARGES


@<TRIPOS>ATOM
   1 C1            -0.0700     1.1519    -0.5219 C.2     
   2 C2            -0.0302     0.3423     0.6373 C.2     
   3 C3             1.2493     1.3936    -0.8953 C.2     
   4 N4             2.0385     0.7576    -0.0001 N.pl3   
   5 N5             1.2189     0.1166     0.9352 N.2     
   6 C6             3.4397     0.7430    -0.0078 C.ar    
   7 C7             4.1470     1.9315    -0.1281 C.ar    
   8 C8             5.5283     1.9139    -0.1355 C.ar    
   9 C9             6.2063     0.7142    -0.0233 C.ar    
  10 C10            5.5045    -0.4715     0.0967 C.ar    
  11 C11            4.1237    -0.4598     0.1105 C.ar    
  12 N12            1.6725     2.1416    -1.9771 N.pl3   
  13 C13            3.3597    -1.7522     0.2412 C.3     
  14 C14            2.8745    -2.1998    -1.1391 C.3     
  15 C15           -1.2446     1.6275    -1.1887 C.1     
  16 N16           -2.1765     2.0048    -1.7176 N.1     
  17 H17           -0.8872    -0.0251     1.1823 H       
  18 H18            3.6179     2.8689    -0.2162 H       
  19 H19            6.0791     2.8381    -0.2295 H       
  20 H20            7.2863     0.7029    -0.0297 H       
  21 H21            6.0370    -1.4071     0.1838 H       
  22 H22            1.0229     2.5080    -2.5973 H       
  23 H23            2.6192     2.3004    -2.1164 H       
  24 H24            4.0105    -2.5179     0.6635 H       
  25 H25            2.5019    -1.6025     0.8969 H       
  26 H26            2.2237    -1.4341    -1.5613 H       
  27 H27            3.7323    -2.3495    -1.7948 H       
  28 H28            2.3220    -3.1345    -1.0445 H       
@<TRIPOS>BOND
   1    1    2 1
   2    1    3 2
   3    1   15 1
   4    2    5 2
   5    2   17 1
   6    3    4 1
   7    3   12 1
   8    4    5 1
   9    4    6 1
  10    6    7 ar
  11    6   11 ar
  12    7    8 ar
  13    7   18 1
  14    8    9 ar
  15    8   19 1
  16    9   10 ar
  17    9   20 1
  18   10   11 ar
  19   10   21 1
  20   11   13 1
  21   12   22 1
  22   12   23 1
  23   13   14 1
  24   13   24 1
  25   13   25 1
  26   14   26 1
  27   14   27 1
  28   14   28 1
  29   15   16 3

#	End of record

