#	Name: ASD00841953
#	Creating user name:	WinNT
#	Creation time:	15. 06. 2019 18:43

#	Modifying user name:	WinNT
#	Modification time:	15. 06. 2019 18:43

#	Program:	/corina/corina34_cracker 3.40 0067  02.08.2006

@<TRIPOS>MOLECULE
ASD00841953
 102  107    0    0    0
SMALL
NO_CHARGES


@<TRIPOS>ATOM
   1 C1             0.8880     1.5111    -0.6889 C.ar    
   2 C2             1.2198     0.1722    -0.8351 C.ar    
   3 C3             1.1987    -0.6698     0.2676 C.ar    
   4 C4             0.8475    -0.1731     1.5076 C.ar    
   5 C5             0.5167     1.1619     1.6507 C.ar    
   6 C6             0.5374     2.0030     0.5537 C.ar    
   7 C7             1.5582    -2.1250     0.1122 C.3     
   8 C8             1.3409    -2.8669     1.4138 C.2     
   9 C9             0.7372    -2.7616    -1.0111 C.3     
  10 C10           -0.7296    -2.5304    -0.7543 C.2     
  11 N11           -1.6508    -3.0646    -1.5804 N.am    
  12 O12           -1.0812    -1.8635     0.1958 O.2     
  13 C13           -3.0767    -2.7523    -1.4136 C.3     
  14 C14           -3.8600    -4.0648    -1.3099 C.3     
  15 C15           -3.5461    -4.9390    -2.5262 C.3     
  16 C16           -2.0518    -5.2687    -2.5476 C.3     
  17 C17           -1.2475    -3.9655    -2.6687 C.3     
  18 C18           -4.3532    -6.2361    -2.4435 C.3     
  19 C19           -5.8487    -5.9079    -2.4238 C.3     
  20 C20           -6.6517    -7.2106    -2.4026 C.3     
  21 N21           -6.3231    -8.0090    -3.5904 N.3     
  22 C22           -4.9014    -8.3763    -3.6067 C.3     
  23 C23           -4.0462    -7.1085    -3.6639 C.3     
  24 C24           -7.1761    -9.2020    -3.6753 C.3     
  25 O25            0.2881    -2.9970     2.0017 O.2     
  26 N26            2.5336    -3.3537     1.7957 N.am    
  27 C27            3.0376    -2.2792    -0.1564 C.ar    
  28 C28            3.5501    -3.0269     0.8966 C.ar    
  29 C29            3.8547    -1.8389    -1.1731 C.ar    
  30 C30            5.2060    -2.1408    -1.1535 C.ar    
  31 C31            5.7298    -2.8858    -0.1089 C.ar    
  32 C32            4.9100    -3.3280     0.9118 C.ar    
  33 Cl33           6.2405    -1.5884    -2.4336 Cl      
  34 F34            7.0479    -3.1811    -0.0884 F       
  35 C35            2.5424    -5.9347     2.7511 C.ar    
  36 C36            1.2960    -6.3848     2.3397 C.ar    
  37 C37            3.6064    -6.8137     2.8234 C.ar    
  38 C38            3.4322    -8.1420     2.4861 C.ar    
  39 C39            2.1874    -8.5971     2.0740 C.ar    
  40 C40            1.1185    -7.7176     2.0010 C.ar    
  41 O41            2.0166    -9.9040     1.7428 O.3     
  42 O42            0.2500    -5.5201     2.2691 O.3     
  43 C43            3.1615   -10.7534     1.8419 C.3     
  44 C44           -1.0039    -6.0526     1.8376 C.3     
  45 C45           -2.0526    -4.9387     1.8215 C.3     
  46 C46           -6.9829    -9.8712    -5.0376 C.3     
  47 C47           -7.8713   -11.1137    -5.1260 C.3     
  48 O48            1.5646    -0.3141    -2.0564 O.3     
  49 C49            1.9806    -0.1060    -4.4279 C.3     
  50 C50            1.4562     0.5807    -3.1652 C.3     
  51 S51            2.7704    -4.2397     3.1746 S.o2    
  52 O52            4.1420    -4.0923     3.5156 O.2     
  53 O53            1.7094    -3.9003     4.0568 O.2     
  54 H54            0.9080     2.1694    -1.5448 H       
  55 H55            0.8310    -0.8281     2.3662 H       
  56 H56            0.2417     1.5482     2.6210 H       
  57 H57            0.2786     3.0453     0.6680 H       
  58 H58            1.0147    -2.3111    -1.9640 H       
  59 H59            0.9359    -3.8328    -1.0441 H       
  60 H60           -3.2191    -2.1690    -0.5039 H       
  61 H61           -3.4293    -2.1834    -2.2739 H       
  62 H62           -3.5707    -4.5902    -0.3998 H       
  63 H63           -4.9283    -3.8497    -1.2824 H       
  64 H64           -3.8128    -4.4030    -3.4371 H       
  65 H65           -1.7795    -5.7828    -1.6258 H       
  66 H66           -1.8331    -5.9105    -3.4010 H       
  67 H67           -1.4520    -3.4981    -3.6319 H       
  68 H68           -0.1829    -4.1840    -2.5850 H       
  69 H69           -4.0863    -6.7739    -1.5338 H       
  70 H70           -6.0811    -5.3226    -1.5341 H       
  71 H71           -6.1074    -5.3355    -3.3146 H       
  72 H72           -6.4027    -7.7761    -1.5046 H       
  73 H73           -7.7171    -6.9805    -2.4029 H       
  74 H74           -4.6606    -8.9364    -2.7031 H       
  75 H75           -4.6956    -8.9930    -4.4817 H       
  76 H76           -4.2766    -6.5549    -4.5742 H       
  77 H77           -2.9908    -7.3809    -3.6602 H       
  78 H78           -6.9026    -9.9011    -2.8850 H       
  79 H79           -8.2200    -8.9113    -3.5580 H       
  80 H80            3.4421    -1.2590    -1.9854 H       
  81 H81            5.3246    -3.9079     1.7232 H       
  82 H82            4.5757    -6.4615     3.1438 H       
  83 H83            4.2654    -8.8268     2.5428 H       
  84 H84            0.1491    -8.0699     1.6809 H       
  85 H85            3.9462   -10.3840     1.1816 H       
  86 H86            3.5235   -10.7567     2.8700 H       
  87 H87            2.8881   -11.7672     1.5496 H       
  88 H88           -0.8974    -6.4658     0.8346 H       
  89 H89           -1.3198    -6.8391     2.5229 H       
  90 H90           -3.0091    -5.3448     1.4923 H       
  91 H91           -2.1592    -4.5255     2.8245 H       
  92 H92           -1.7367    -4.1521     1.1362 H       
  93 H93           -7.2564    -9.1720    -5.8278 H       
  94 H94           -5.9390   -10.1618    -5.1548 H       
  95 H95           -7.7337   -11.5904    -6.0965 H       
  96 H96           -7.5979   -11.8128    -4.3357 H       
  97 H97           -8.9153   -10.8230    -5.0087 H       
  98 H98            1.9796     0.6041    -5.2548 H       
  99 H99            2.9968    -0.4596    -4.2538 H       
 100 H100           1.3388    -0.9519    -4.6746 H       
 101 H101           0.4114     0.8564    -3.3088 H       
 102 H102           2.0446     1.4767    -2.9679 H       
@<TRIPOS>BOND
   1    1    2 ar
   2    1    6 ar
   3    1   54 1
   4    2    3 ar
   5    2   48 1
   6    3    4 ar
   7    3    7 1
   8    4    5 ar
   9    4   55 1
  10    5    6 ar
  11    5   56 1
  12    6   57 1
  13    7    8 1
  14    7    9 1
  15    7   27 1
  16    8   25 2
  17    8   26 am
  18    9   10 1
  19    9   58 1
  20    9   59 1
  21   10   11 am
  22   10   12 2
  23   11   13 1
  24   11   17 1
  25   13   14 1
  26   13   60 1
  27   13   61 1
  28   14   15 1
  29   14   62 1
  30   14   63 1
  31   15   16 1
  32   15   18 1
  33   15   64 1
  34   16   17 1
  35   16   65 1
  36   16   66 1
  37   17   67 1
  38   17   68 1
  39   18   19 1
  40   18   23 1
  41   18   69 1
  42   19   20 1
  43   19   70 1
  44   19   71 1
  45   20   21 1
  46   20   72 1
  47   20   73 1
  48   21   22 1
  49   21   24 1
  50   22   23 1
  51   22   74 1
  52   22   75 1
  53   23   76 1
  54   23   77 1
  55   24   46 1
  56   24   78 1
  57   24   79 1
  58   26   51 am
  59   26   28 1
  60   27   28 ar
  61   27   29 ar
  62   28   32 ar
  63   29   30 ar
  64   29   80 1
  65   30   31 ar
  66   30   33 1
  67   31   32 ar
  68   31   34 1
  69   32   81 1
  70   35   36 ar
  71   35   37 ar
  72   35   51 1
  73   36   42 1
  74   36   40 ar
  75   37   38 ar
  76   37   82 1
  77   38   39 ar
  78   38   83 1
  79   39   40 ar
  80   39   41 1
  81   40   84 1
  82   41   43 1
  83   42   44 1
  84   43   85 1
  85   43   86 1
  86   43   87 1
  87   44   45 1
  88   44   88 1
  89   44   89 1
  90   45   90 1
  91   45   91 1
  92   45   92 1
  93   46   47 1
  94   46   93 1
  95   46   94 1
  96   47   95 1
  97   47   96 1
  98   47   97 1
  99   48   50 1
 100   49   50 1
 101   49   98 1
 102   49   99 1
 103   49  100 1
 104   50  101 1
 105   50  102 1
 106   51   52 2
 107   51   53 2

#	End of record

