#	Name: ASD01900387
#	Creating user name:	WinNT
#	Creation time:	15. 06. 2019 19:51

#	Modifying user name:	WinNT
#	Modification time:	15. 06. 2019 19:51

#	Program:	/corina/corina34_cracker 3.40 0067  02.08.2006

@<TRIPOS>MOLECULE
ASD01900387
  26   28    0    0    0
SMALL
NO_CHARGES


@<TRIPOS>ATOM
   1 C1             0.0221     1.4066     0.3782 C.ar    
   2 C2             0.0580     0.0276     0.5386 C.ar    
   3 N3             1.1755    -0.6484     0.3973 N.ar    
   4 C4             2.3206    -0.0414     0.0946 C.ar    
   5 C5             2.3585     1.3549    -0.0826 C.ar    
   6 C6             1.1814     2.0880     0.0637 C.ar    
   7 C7             3.6896    -0.5154    -0.1220 C.2     
   8 N8             4.4319     0.5241    -0.3970 N.2     
   9 N9             3.6535     1.6860    -0.3822 N.pl3   
  10 N10            4.1242    -1.8425    -0.0471 N.pl3   
  11 C11            5.4836    -2.1400    -0.1677 C.ar    
  12 C12            6.4375    -1.2128     0.2333 C.ar    
  13 C13            5.8850    -3.3660    -0.6836 C.ar    
  14 C14            7.2298    -3.6568    -0.8014 C.ar    
  15 C15            8.1766    -2.7294    -0.4066 C.ar    
  16 C16            7.7807    -1.5103     0.1126 C.ar    
  17 H17           -0.9082     1.9427     0.4945 H       
  18 H18           -0.8516    -0.5000     0.7849 H       
  19 H19            1.1764     3.1602    -0.0659 H       
  20 H20            3.9787     2.5831    -0.5568 H       
  21 H21            3.4817    -2.5563     0.0885 H       
  22 H22            6.1290    -0.2605     0.6386 H       
  23 H23            5.1461    -4.0909    -0.9918 H       
  24 H24            7.5425    -4.6098    -1.2021 H       
  25 H25            9.2277    -2.9595    -0.4995 H       
  26 H26            8.5227    -0.7882     0.4197 H       
@<TRIPOS>BOND
   1    1    2 ar
   2    1    6 ar
   3    1   17 1
   4    2    3 ar
   5    2   18 1
   6    3    4 ar
   7    4    5 ar
   8    4    7 1
   9    5    6 ar
  10    5    9 1
  11    6   19 1
  12    7    8 2
  13    7   10 1
  14    8    9 1
  15    9   20 1
  16   10   11 1
  17   10   21 1
  18   11   12 ar
  19   11   13 ar
  20   12   16 ar
  21   12   22 1
  22   13   14 ar
  23   13   23 1
  24   14   15 ar
  25   14   24 1
  26   15   16 ar
  27   15   25 1
  28   16   26 1

#	End of record

