#	Name: ASD01410350
#	Creating user name:	WinNT
#	Creation time:	15. 06. 2019 19:17

#	Modifying user name:	WinNT
#	Modification time:	15. 06. 2019 19:17

#	Program:	/corina/corina34_cracker 3.40 0067  02.08.2006

@<TRIPOS>MOLECULE
ASD01410350
  60   64    0    0    0
SMALL
NO_CHARGES


@<TRIPOS>ATOM
   1 N1            -0.0166     1.3719     0.0096 N.pl3   
   2 C2             0.0021    -0.0041     0.0020 C.2     
   3 C3            -1.2768    -0.4704     0.0126 C.2     
   4 C4            -2.1445     0.6459     0.0274 C.ar    
   5 C5            -1.3304     1.7977     0.0305 C.ar    
   6 C6            -3.5418     0.7757     0.0419 C.ar    
   7 C7            -4.1107     2.0115     0.0539 C.ar    
   8 C8            -3.3086     3.1632     0.0514 C.ar    
   9 C9            -1.9179     3.0516     0.0443 C.ar    
  10 C10           -2.5146    -2.2167     1.2644 C.3     
  11 C11           -2.9377    -3.6870     1.2601 C.3     
  12 C12           -3.7848    -3.9703     0.0179 C.3     
  13 C13           -2.9637    -3.6722    -1.2382 C.3     
  14 C14           -2.5406    -2.2019    -1.2339 C.3     
  15 C15           -1.6935    -1.9186     0.0083 C.3     
  16 C16            1.1624     2.2415     0.0030 C.3     
  17 C17            1.5531     2.5473    -1.4200 C.2     
  18 O18            0.9100     2.0845    -2.3382 O.2     
  19 C19            3.0178     3.6478    -3.0532 C.3     
  20 N20            2.6171     3.3352    -1.6722 N.am    
  21 C21            3.4122     3.9086    -0.5747 C.3     
  22 C22            3.1826     5.1669    -3.1767 C.3     
  23 C23            3.5578     5.4149    -0.8190 C.3     
  24 O24            4.0533     5.6315    -2.1424 O.3     
  25 C25            3.3096    -1.5563    -0.6435 C.2     
  26 C26            3.0707    -2.5032     0.2695 C.2     
  27 S27            1.4847    -2.2582     0.9877 S.3     
  28 C28            1.2130    -0.8393    -0.0156 C.2     
  29 C29            2.2988    -0.6353    -0.8114 C.2     
  30 C30           -3.9376     4.4953     0.0635 C.2     
  31 O31           -3.2454     5.4942     0.0614 O.2     
  32 O32           -5.2808     4.6062     0.0769 O.3     
  33 H33           -4.1658    -0.1058     0.0432 H       
  34 H34           -5.1865     2.1069     0.0650 H       
  35 H35           -1.3025     3.9391     0.0428 H       
  36 H36           -3.4017    -1.5834     1.2774 H       
  37 H37           -1.9111    -2.0149     2.1494 H       
  38 H38           -2.0506    -4.3203     1.2471 H       
  39 H39           -3.5227    -3.8994     2.1549 H       
  40 H40           -4.0862    -5.0178     0.0148 H       
  41 H41           -4.6719    -3.3370     0.0309 H       
  42 H42           -2.0766    -4.3055    -1.2512 H       
  43 H43           -3.5672    -3.8740    -2.1232 H       
  44 H44           -1.9556    -1.9895    -2.1288 H       
  45 H45           -3.4277    -1.5686    -1.2209 H       
  46 H46           -0.8064    -2.5519    -0.0047 H       
  47 H47            0.9315     3.1707     0.5241 H       
  48 H48            1.9879     1.7382     0.5063 H       
  49 H49            3.9635     3.1562    -3.2813 H       
  50 H50            2.2487     3.3046    -3.7452 H       
  51 H51            2.9044     3.7380     0.3745 H       
  52 H52            4.3976     3.4432    -0.5533 H       
  53 H53            3.6111     5.4087    -4.1493 H       
  54 H54            2.2096     5.6480    -3.0769 H       
  55 H55            2.5862     5.8969    -0.7106 H       
  56 H56            4.2563     5.8352    -0.0954 H       
  57 H57            4.2307    -1.5137    -1.2058 H       
  58 H58            3.7514    -3.3009     0.5277 H       
  59 H59            2.3625     0.1811    -1.5156 H       
  60 H60           -5.6474     5.5010     0.0845 H       
@<TRIPOS>BOND
   1    1    2 1
   2    1   16 1
   3    1    5 1
   4    2    3 2
   5    2   28 1
   6    3    4 1
   7    3   15 1
   8    4    5 ar
   9    4    6 ar
  10    5    9 ar
  11    6    7 ar
  12    6   33 1
  13    7    8 ar
  14    7   34 1
  15    8    9 ar
  16    8   30 1
  17    9   35 1
  18   10   11 1
  19   10   15 1
  20   10   36 1
  21   10   37 1
  22   11   12 1
  23   11   38 1
  24   11   39 1
  25   12   13 1
  26   12   40 1
  27   12   41 1
  28   13   14 1
  29   13   42 1
  30   13   43 1
  31   14   15 1
  32   14   44 1
  33   14   45 1
  34   15   46 1
  35   16   17 1
  36   16   47 1
  37   16   48 1
  38   17   18 2
  39   17   20 am
  40   19   20 1
  41   19   22 1
  42   19   49 1
  43   19   50 1
  44   20   21 1
  45   21   23 1
  46   21   51 1
  47   21   52 1
  48   22   24 1
  49   22   53 1
  50   22   54 1
  51   23   24 1
  52   23   55 1
  53   23   56 1
  54   25   26 2
  55   25   29 1
  56   25   57 1
  57   26   27 1
  58   26   58 1
  59   27   28 1
  60   28   29 2
  61   29   59 1
  62   30   31 2
  63   30   32 1
  64   32   60 1

#	End of record

