#	Name: ASD04880365
#	Creating user name:	WinNT
#	Creation time:	15. 06. 2019 20:53

#	Modifying user name:	WinNT
#	Modification time:	15. 06. 2019 20:53

#	Program:	/corina/corina34_cracker 3.40 0067  02.08.2006

@<TRIPOS>MOLECULE
ASD04880365
  36   39    0    0    0
SMALL
NO_CHARGES


@<TRIPOS>ATOM
   1 C1            -0.0555     1.2841    -0.6385 C.ar    
   2 C2            -0.0160    -0.0985    -0.6249 C.ar    
   3 C3             1.1927    -0.7565    -0.5158 C.ar    
   4 C4             2.3778    -0.0219    -0.4195 C.ar    
   5 C5             2.3292     1.3743    -0.4345 C.ar    
   6 C6             1.1143     2.0177    -0.5436 C.ar    
   7 C7             3.6729    -0.7169    -0.3022 C.2     
   8 N8             3.8240    -1.9882    -0.1582 N.2     
   9 N9             5.1531    -2.3974    -0.0716 N.am    
  10 C10            6.0227    -1.2146    -0.1738 C.3     
  11 C11            5.0285    -0.0481    -0.3389 C.3     
  12 C12            5.5737    -3.6686     0.0816 C.2     
  13 O13            6.7604    -3.9280     0.0217 O.2     
  14 C14            4.5943    -4.7458     0.3219 C.ar    
  15 C15            5.0015    -6.0826     0.2920 C.ar    
  16 C16            3.2588    -4.4320     0.5856 C.ar    
  17 C17            2.3458    -5.4393     0.8106 C.ar    
  18 C18            2.7481    -6.7675     0.7765 C.ar    
  19 C19            4.0820    -7.0876     0.5179 C.ar    
  20 Br20           1.2448    -2.6467    -0.4961 Br      
  21 O21            2.0518    -7.9250     0.9634 O.3     
  22 C22            2.8778    -8.9657     0.4090 C.3     
  23 O23            4.2155    -8.4463     0.5393 O.3     
  24 H24           -1.0035     1.7937    -0.7282 H       
  25 H25           -0.9328    -0.6645    -0.6994 H       
  26 H26            3.2409     1.9484    -0.3601 H       
  27 H27            1.0756     3.0969    -0.5553 H       
  28 H28            6.6140    -1.0937     0.7338 H       
  29 H29            6.6700    -1.2888    -1.0476 H       
  30 H30            5.1860     0.4565    -1.2922 H       
  31 H31            5.1242     0.6558     0.4878 H       
  32 H32            6.0339    -6.3291     0.0922 H       
  33 H33            2.9420    -3.3999     0.6134 H       
  34 H34            1.3139    -5.1947     1.0146 H       
  35 H35            2.7690    -9.8868     0.9815 H       
  36 H36            2.6300    -9.1337    -0.6391 H       
@<TRIPOS>BOND
   1    1    2 ar
   2    1    6 ar
   3    1   24 1
   4    2    3 ar
   5    2   25 1
   6    3    4 ar
   7    3   20 1
   8    4    5 ar
   9    4    7 1
  10    5    6 ar
  11    5   26 1
  12    6   27 1
  13    7    8 2
  14    7   11 1
  15    8    9 1
  16    9   10 1
  17    9   12 am
  18   10   11 1
  19   10   28 1
  20   10   29 1
  21   11   30 1
  22   11   31 1
  23   12   13 2
  24   12   14 1
  25   14   15 ar
  26   14   16 ar
  27   15   19 ar
  28   15   32 1
  29   16   17 ar
  30   16   33 1
  31   17   18 ar
  32   17   34 1
  33   18   19 ar
  34   18   21 1
  35   19   23 1
  36   21   22 1
  37   22   23 1
  38   22   35 1
  39   22   36 1

#	End of record

