#	Name: ASD01901006
#	Creating user name:	WinNT
#	Creation time:	15. 06. 2019 19:53

#	Modifying user name:	WinNT
#	Modification time:	15. 06. 2019 19:53

#	Program:	/corina/corina34_cracker 3.40 0067  02.08.2006

@<TRIPOS>MOLECULE
ASD01901006
  34   36    0    0    0
SMALL
NO_CHARGES


@<TRIPOS>ATOM
   1 C1            -0.0159     1.3201     0.0093 C.ar    
   2 N2             0.0021    -0.0041     0.0020 N.ar    
   3 C3             1.1593    -0.6662    -0.0126 C.ar    
   4 C4             2.3575     0.0626    -0.0202 C.ar    
   5 C5             2.2877     1.4437    -0.0121 C.ar    
   6 N6             1.1026     2.0329     0.0024 N.ar    
   7 C7             1.1789    -2.1386    -0.0202 C.2     
   8 C8             0.0246    -2.8258    -0.0124 C.2     
   9 C9             0.0443    -4.2992    -0.0200 C.ar    
  10 C10           -1.1545    -5.0175    -0.0119 C.ar    
  11 C11           -1.1281    -6.3964    -0.0191 C.ar    
  12 C12            0.0813    -7.0687    -0.0338 C.ar    
  13 C13            1.2724    -6.3642    -0.0414 C.ar    
  14 C14            1.2618    -4.9851    -0.0412 C.ar    
  15 C15           -1.3211     2.0246     0.0193 C.ar    
  16 C16           -1.3640     3.4176     0.0270 C.ar    
  17 C17           -2.5813     4.0679     0.0358 C.ar    
  18 C18           -3.7574     3.3396     0.0374 C.ar    
  19 C19           -3.7208     1.9569     0.0301 C.ar    
  20 C20           -2.5092     1.2961     0.0151 C.ar    
  21 H21            3.3119    -0.4427    -0.0317 H       
  22 H22            3.1911     2.0355    -0.0172 H       
  23 H23            2.1213    -2.6660    -0.0321 H       
  24 H24           -0.9177    -2.2984    -0.0006 H       
  25 H25           -2.0991    -4.4942     0.0003 H       
  26 H26           -2.0537    -6.9529    -0.0129 H       
  27 H27            0.0957    -8.1486    -0.0390 H       
  28 H28            2.2125    -6.8957    -0.0522 H       
  29 H29            2.1921    -4.4366    -0.0520 H       
  30 H30           -0.4464     3.9872     0.0266 H       
  31 H31           -2.6158     5.1473     0.0418 H       
  32 H32           -4.7078     3.8526     0.0446 H       
  33 H33           -4.6421     1.3933     0.0321 H       
  34 H34           -2.4818     0.2165     0.0049 H       
@<TRIPOS>BOND
   1    1    2 ar
   2    1    6 ar
   3    1   15 1
   4    2    3 ar
   5    3    4 ar
   6    3    7 1
   7    4    5 ar
   8    4   21 1
   9    5    6 ar
  10    5   22 1
  11    7    8 2
  12    7   23 1
  13    8    9 1
  14    8   24 1
  15    9   10 ar
  16    9   14 ar
  17   10   11 ar
  18   10   25 1
  19   11   12 ar
  20   11   26 1
  21   12   13 ar
  22   12   27 1
  23   13   14 ar
  24   13   28 1
  25   14   29 1
  26   15   16 ar
  27   15   20 ar
  28   16   17 ar
  29   16   30 1
  30   17   18 ar
  31   17   31 1
  32   18   19 ar
  33   18   32 1
  34   19   20 ar
  35   19   33 1
  36   20   34 1

#	End of record

