#	Name: ASD01320121
#	Creating user name:	WinNT
#	Creation time:	15. 06. 2019 19:16

#	Modifying user name:	WinNT
#	Modification time:	15. 06. 2019 19:16

#	Program:	/corina/corina34_cracker 3.40 0067  02.08.2006

@<TRIPOS>MOLECULE
ASD01320121
  47   49    0    0    0
SMALL
NO_CHARGES


@<TRIPOS>ATOM
   1 C1            -0.0173     1.4248     0.0099 C.3     
   2 O2             0.0021    -0.0041     0.0020 O.3     
   3 C3             1.4181     1.9544    -0.0010 C.3     
   4 O4             2.0503     1.5916    -1.2301 O.3     
   5 C5             1.4004     3.4784     0.1331 C.3     
   6 O6             0.7682     3.8411     1.3622 O.3     
   7 C7             2.8358     4.0080     0.1222 C.3     
   8 O8             3.4681     3.6452    -1.1069 O.3     
   9 C9             2.8182     5.5320     0.2563 C.3     
  10 N10            4.3771     5.8681     2.5843 N.2     
  11 C11            5.0745     6.0100     3.7086 C.2     
  12 O12            4.5357     5.7035     4.7577 O.2     
  13 N13            6.3331     6.4687     3.7589 N.am    
  14 C14            6.9956     6.8283     2.6351 C.2     
  15 C15            6.2712     6.6923     1.3519 C.2     
  16 O16            8.1367     7.2453     2.6779 O.2     
  17 C17            6.1324     6.8765    -0.9379 C.ar    
  18 N18            6.8164     7.0114     0.2060 N.2     
  19 C19            6.7378     7.2259    -2.1613 C.ar    
  20 C20            6.0447     7.0901    -3.3256 C.ar    
  21 C21            6.6990     7.4653    -4.6302 C.3     
  22 C22            4.7394     6.6084    -3.3242 C.ar    
  23 C23            3.9946     6.4672    -4.6267 C.3     
  24 C24            4.1214     6.2604    -2.1441 C.ar    
  25 C25            4.8071     6.3863    -0.9385 C.ar    
  26 C26            4.8926     6.1787     1.4066 C.2     
  27 N27            4.1926     6.0390     0.2459 N.pl3   
  28 H28           -0.5445     1.7859    -0.8732 H       
  29 H29           -0.5275     1.7763     0.9067 H       
  30 H30           -0.8759    -0.4094     0.0082 H       
  31 H31            1.9710     1.5226     0.8333 H       
  32 H32            1.6109     1.9422    -2.0169 H       
  33 H33            0.8475     3.9101    -0.7012 H       
  34 H34            1.2076     3.4905     2.1490 H       
  35 H35            3.3887     3.5762     0.9565 H       
  36 H36            3.0286     3.9958    -1.8937 H       
  37 H37            2.2653     5.9637    -0.5779 H       
  38 H38            2.3359     5.8087     1.1938 H       
  39 H39            6.7776     6.5445     4.6178 H       
  40 H40            7.7504     7.6013    -2.1757 H       
  41 H41            7.2105     6.5959    -5.0434 H       
  42 H42            5.9391     7.8075    -5.3327 H       
  43 H43            7.4208     8.2638    -4.4583 H       
  44 H44            4.1691     5.4734    -5.0391 H       
  45 H45            2.9277     6.6058    -4.4520 H       
  46 H46            4.3483     7.2201    -5.3310 H       
  47 H47            3.1077     5.8879    -2.1535 H       
@<TRIPOS>BOND
   1    1    2 1
   2    1    3 1
   3    1   28 1
   4    1   29 1
   5    2   30 1
   6    3    4 1
   7    3    5 1
   8    3   31 1
   9    4   32 1
  10    5    6 1
  11    5    7 1
  12    5   33 1
  13    6   34 1
  14    7    8 1
  15    7    9 1
  16    7   35 1
  17    8   36 1
  18    9   27 1
  19    9   37 1
  20    9   38 1
  21   10   11 1
  22   10   26 2
  23   11   12 2
  24   11   13 am
  25   13   14 am
  26   13   39 1
  27   14   15 1
  28   14   16 2
  29   15   18 2
  30   15   26 1
  31   17   18 1
  32   17   19 ar
  33   17   25 ar
  34   19   20 ar
  35   19   40 1
  36   20   21 1
  37   20   22 ar
  38   21   41 1
  39   21   42 1
  40   21   43 1
  41   22   23 1
  42   22   24 ar
  43   23   44 1
  44   23   45 1
  45   23   46 1
  46   24   25 ar
  47   24   47 1
  48   25   27 1
  49   26   27 1

#	End of record

