#	Name: ASD01916178
#	Creating user name:	WinNT
#	Creation time:	15. 06. 2019 20:06

#	Modifying user name:	WinNT
#	Modification time:	15. 06. 2019 20:06

#	Program:	/corina/corina34_cracker 3.40 0067  02.08.2006

@<TRIPOS>MOLECULE
ASD01916178
  48   51    0    0    0
SMALL
NO_CHARGES


@<TRIPOS>ATOM
   1 C1             0.0137     1.3790     0.0684 C.ar    
   2 C2             0.0271    -0.0023     0.0492 C.ar    
   3 C3             1.2358    -0.6831     0.0439 C.ar    
   4 C4             2.4284     0.0255     0.0578 C.ar    
   5 C5             2.4097     1.4066     0.0770 C.ar    
   6 C6             1.2037     2.0828     0.0824 C.ar    
   7 O7             1.2516    -2.0419     0.0255 O.3     
   8 C8             2.5322    -2.6759     0.0210 C.3     
   9 C9             2.3521    -4.1719     0.0000 C.2     
  10 C10            2.2577    -4.9713    -1.1496 C.2     
  11 N11            2.2628    -4.9480     1.0524 N.2     
  12 N12            2.1069    -6.2651     0.6136 N.pl3   
  13 C13            2.1026    -6.2495    -0.7488 C.2     
  14 C14            1.9785    -7.4707     1.4366 C.3     
  15 C15            1.3777    -8.5979     0.5897 C.3     
  16 N16            2.0632    -8.6474    -0.7104 N.am    
  17 C17            1.9417    -7.4824    -1.6058 C.3     
  18 C18            2.7853    -9.7260    -1.0733 C.2     
  19 C19            3.3559    -9.8094    -2.4333 C.ar    
  20 O20            2.9670   -10.6303    -0.2813 O.2     
  21 C21            4.5951   -10.4201    -2.6371 C.ar    
  22 C22            4.4255    -9.9663    -4.9835 C.ar    
  23 C23            3.1921    -9.3640    -4.7876 C.ar    
  24 C24            2.6553    -9.2830    -3.5207 C.ar    
  25 C25            5.1227   -10.4956    -3.9082 C.ar    
  26 F26            4.9473   -10.0426    -6.2273 F       
  27 O27            2.3125    -4.5344    -2.4388 O.3     
  28 C28            3.6026    -4.4791    -3.0508 C.3     
  29 H29           -0.9270     1.9095     0.0681 H       
  30 H30           -0.9027    -0.5517     0.0388 H       
  31 H31            3.3707    -0.5023     0.0541 H       
  32 H32            3.3379     1.9587     0.0883 H       
  33 H33            1.1912     3.1627     0.0974 H       
  34 H34            3.0887    -2.3645    -0.8631 H       
  35 H35            3.0829    -2.3887     0.9167 H       
  36 H36            2.9620    -7.7713     1.7979 H       
  37 H37            1.3255    -7.2647     2.2847 H       
  38 H38            1.5071    -9.5492     1.1057 H       
  39 H39            0.3154    -8.4094     0.4340 H       
  40 H40            0.9599    -7.4777    -2.0792 H       
  41 H41            2.7223    -7.5144    -2.3660 H       
  42 H42            5.1393   -10.8321    -1.8001 H       
  43 H43            2.6511    -8.9572    -5.6292 H       
  44 H44            1.6944    -8.8137    -3.3692 H       
  45 H45            6.0811   -10.9677    -4.0669 H       
  46 H46            4.0432    -5.4761    -3.0604 H       
  47 H47            3.5043    -4.1154    -4.0736 H       
  48 H48            4.2445    -3.8037    -2.4851 H       
@<TRIPOS>BOND
   1    1    2 ar
   2    1    6 ar
   3    1   29 1
   4    2    3 ar
   5    2   30 1
   6    3    4 ar
   7    3    7 1
   8    4    5 ar
   9    4   31 1
  10    5    6 ar
  11    5   32 1
  12    6   33 1
  13    7    8 1
  14    8    9 1
  15    8   34 1
  16    8   35 1
  17    9   10 1
  18    9   11 2
  19   10   27 1
  20   10   13 2
  21   11   12 1
  22   12   13 1
  23   12   14 1
  24   13   17 1
  25   14   15 1
  26   14   36 1
  27   14   37 1
  28   15   16 1
  29   15   38 1
  30   15   39 1
  31   16   17 1
  32   16   18 am
  33   17   40 1
  34   17   41 1
  35   18   19 1
  36   18   20 2
  37   19   21 ar
  38   19   24 ar
  39   21   25 ar
  40   21   42 1
  41   22   23 ar
  42   22   26 1
  43   22   25 ar
  44   23   24 ar
  45   23   43 1
  46   24   44 1
  47   25   45 1
  48   27   28 1
  49   28   46 1
  50   28   47 1
  51   28   48 1

#	End of record

