#	Name: ASD09320002
#	Creating user name:	WinNT
#	Creation time:	15. 06. 2019 21:21

#	Modifying user name:	WinNT
#	Modification time:	15. 06. 2019 21:21

#	Program:	/corina/corina34_cracker 3.40 0067  02.08.2006

@<TRIPOS>MOLECULE
ASD09320002
 105  111    0    0    0
SMALL
NO_CHARGES


@<TRIPOS>ATOM
   1 C1            -0.0167     1.3826     0.0096 C.ar    
   2 C2             0.0021    -0.0041     0.0020 C.ar    
   3 C3            -1.1787    -0.7255     0.0094 C.ar    
   4 C4            -2.3992    -0.0540     0.0251 C.ar    
   5 C5            -2.4077     1.3509     0.0332 C.ar    
   6 C6            -1.2044     2.0597     0.0303 C.ar    
   7 O7            -3.6830    -0.4688     0.0357 O.3     
   8 C8            -4.5266     0.5818     0.0502 C.2     
   9 C9            -3.8204     1.7378     0.0497 C.2     
  10 C10           -6.0014     0.4871     0.0641 C.ar    
  11 C11           -6.7767     1.6474     0.0780 C.ar    
  12 C12           -8.1532     1.5571     0.0905 C.ar    
  13 C13           -8.7713     0.3155     0.0893 C.ar    
  14 C14           -8.0020    -0.8478     0.0754 C.ar    
  15 C15           -6.6225    -0.7634     0.0574 C.ar    
  16 O16          -10.0905    -0.0355     0.1003 O.3     
  17 C17          -10.1260    -1.4119    -0.3202 C.3     
  18 O18           -8.8409    -1.9250     0.0774 O.3     
  19 C19            1.2811     2.1485     0.0014 C.3     
  20 C20            1.7065     2.4155    -1.4438 C.3     
  21 C21            3.0241     3.1931    -1.4523 C.3     
  22 O22            3.4215     3.4424    -2.8021 O.3     
  23 C23            4.6472     4.1671    -2.9227 C.3     
  24 C24            5.0376     4.2676    -4.3996 C.3     
  25 C25            3.9583     5.0513    -5.1528 C.3     
  26 C26            3.7929     6.4272    -4.5002 C.3     
  27 C27            3.4506     6.2432    -3.0194 C.3     
  28 O28            4.4793     5.4805    -2.3853 O.3     
  29 C29            3.3427     7.6131    -2.3467 C.3     
  30 O30            5.0122     7.1625    -4.6207 O.3     
  31 O31            4.3499     5.2134    -6.5175 O.3     
  32 O32            6.2899     4.9458    -4.5174 O.3     
  33 O33            2.9099     7.4472    -0.9949 O.3     
  34 C34            2.7760     8.6731    -0.2729 C.3     
  35 C35            2.1916     8.3880     1.1131 C.3     
  36 C36            3.1596     7.4927     1.8926 C.3     
  37 C37            4.5260     8.1811     1.9682 C.3     
  38 C38            5.0202     8.4741     0.5492 C.3     
  39 O39            4.0596     9.2849    -0.1305 O.3     
  40 C40            6.3568     9.2156     0.6174 C.3     
  41 O41            4.4040     9.4060     2.6939 O.3     
  42 O42            2.6571     7.2815     3.2135 O.3     
  43 O43            2.0079     9.6185     1.8162 O.3     
  44 O44            6.8748     9.3862    -0.7034 O.3     
  45 C45            8.1278    10.0715    -0.7523 C.3     
  46 C46            8.6452    10.0874    -2.1931 C.3     
  47 C47            7.6581    10.8601    -3.0733 C.3     
  48 C48            7.4797    12.2710    -2.5042 C.3     
  49 C49            7.0073    12.1708    -1.0514 C.3     
  50 O50            7.9548    11.4143    -0.2949 O.3     
  51 O51            8.7266    12.9672    -2.5539 O.3     
  52 O52            8.1690    10.9431    -4.4053 O.3     
  53 O53            9.9230    10.7258    -2.2346 O.3     
  54 O54           -1.1478    -2.0848     0.0009 O.3     
  55 C55            0.1398    -2.7044    -0.0156 C.3     
  56 C56            6.8844    13.5751    -0.4568 C.3     
  57 O57            6.3333    13.4888     0.8588 O.3     
  58 H58            0.9475    -0.5260    -0.0102 H       
  59 H59           -1.2121     3.1396     0.0369 H       
  60 H60           -4.2184     2.7417     0.0597 H       
  61 H61           -6.2991     2.6161     0.0794 H       
  62 H62           -8.7516     2.4561     0.1017 H       
  63 H63           -6.0257    -1.6635     0.0466 H       
  64 H64          -10.9267    -1.9476     0.1898 H       
  65 H65          -10.2473    -1.4790    -1.4014 H       
  66 H66            1.1466     3.0969     0.5216 H       
  67 H67            2.0512     1.5640     0.5047 H       
  68 H68            1.8410     1.4671    -1.9641 H       
  69 H69            0.9364     3.0000    -1.9472 H       
  70 H70            2.8897     4.1415    -0.9320 H       
  71 H71            3.7942     2.6086    -0.9489 H       
  72 H72            5.4324     3.6472    -2.3738 H       
  73 H73            5.1231     3.2667    -4.8227 H       
  74 H74            3.0139     4.5092    -5.1050 H       
  75 H75            2.9882     6.9708    -4.9953 H       
  76 H76            2.5000     5.7177    -2.9287 H       
  77 H77            4.3171     8.1016    -2.3588 H       
  78 H78            2.6218     8.2272    -2.8863 H       
  79 H79            5.2926     7.3122    -5.5339 H       
  80 H80            4.4795     4.3803    -6.9911 H       
  81 H81            7.0196     4.5068    -4.0591 H       
  82 H82            2.1114     9.3445    -0.8166 H       
  83 H83            1.2323     7.8815     1.0068 H       
  84 H84            3.2616     6.5349     1.3824 H       
  85 H85            5.2362     7.5265     2.4734 H       
  86 H86            5.1517     7.5364     0.0092 H       
  87 H87            6.2075    10.1921     1.0781 H       
  88 H88            7.0632     8.6372     1.2128 H       
  89 H89            4.0900     9.2957     3.6018 H       
  90 H90            1.7898     6.8546     3.2408 H       
  91 H91            1.4090    10.2372     1.3762 H       
  92 H92            8.8473     9.5596    -0.1133 H       
  93 H93            8.7359     9.0646    -2.5588 H       
  94 H94            6.6970    10.3460    -3.0814 H       
  95 H95            6.7368    12.8098    -3.0924 H       
  96 H96            6.0369    11.6755    -1.0180 H       
  97 H97            9.0880    13.0634    -3.4457 H       
  98 H98            8.3130    10.0841    -4.8255 H       
  99 H99           10.5974    10.2915    -1.6946 H       
 100 H100           0.6811    -2.3935    -0.9092 H       
 101 H101           0.6988    -2.4043     0.8707 H       
 102 H102           0.0215    -3.7879    -0.0210 H       
 103 H103           7.8706    14.0367    -0.4081 H       
 104 H104           6.2308    14.1799    -1.0855 H       
 105 H105           6.2268    14.3440     1.2975 H       
@<TRIPOS>BOND
   1    1    2 ar
   2    1   19 1
   3    1    6 ar
   4    2    3 ar
   5    2   58 1
   6    3    4 ar
   7    3   54 1
   8    4    5 ar
   9    4    7 1
  10    5    6 ar
  11    5    9 1
  12    6   59 1
  13    7    8 1
  14    8    9 2
  15    8   10 1
  16    9   60 1
  17   10   11 ar
  18   10   15 ar
  19   11   12 ar
  20   11   61 1
  21   12   13 ar
  22   12   62 1
  23   13   14 ar
  24   13   16 1
  25   14   15 ar
  26   14   18 1
  27   15   63 1
  28   16   17 1
  29   17   18 1
  30   17   64 1
  31   17   65 1
  32   19   20 1
  33   19   66 1
  34   19   67 1
  35   20   21 1
  36   20   68 1
  37   20   69 1
  38   21   22 1
  39   21   70 1
  40   21   71 1
  41   22   23 1
  42   23   24 1
  43   23   28 1
  44   23   72 1
  45   24   25 1
  46   24   32 1
  47   24   73 1
  48   25   26 1
  49   25   31 1
  50   25   74 1
  51   26   27 1
  52   26   30 1
  53   26   75 1
  54   27   28 1
  55   27   29 1
  56   27   76 1
  57   29   33 1
  58   29   77 1
  59   29   78 1
  60   30   79 1
  61   31   80 1
  62   32   81 1
  63   33   34 1
  64   34   35 1
  65   34   39 1
  66   34   82 1
  67   35   36 1
  68   35   43 1
  69   35   83 1
  70   36   37 1
  71   36   42 1
  72   36   84 1
  73   37   38 1
  74   37   41 1
  75   37   85 1
  76   38   39 1
  77   38   40 1
  78   38   86 1
  79   40   44 1
  80   40   87 1
  81   40   88 1
  82   41   89 1
  83   42   90 1
  84   43   91 1
  85   44   45 1
  86   45   46 1
  87   45   50 1
  88   45   92 1
  89   46   47 1
  90   46   53 1
  91   46   93 1
  92   47   48 1
  93   47   52 1
  94   47   94 1
  95   48   49 1
  96   48   51 1
  97   48   95 1
  98   49   50 1
  99   49   56 1
 100   49   96 1
 101   51   97 1
 102   52   98 1
 103   53   99 1
 104   54   55 1
 105   55  100 1
 106   55  101 1
 107   55  102 1
 108   56   57 1
 109   56  103 1
 110   56  104 1
 111   57  105 1

#	End of record

