#	Name: ASD00069092
#	Creating user name:	WinNT
#	Creation time:	15. 06. 2019 18:29

#	Modifying user name:	WinNT
#	Modification time:	15. 06. 2019 18:29

#	Program:	/corina/corina34_cracker 3.40 0067  02.08.2006

@<TRIPOS>MOLECULE
ASD00069092
  57   62    0    0    0
SMALL
NO_CHARGES


@<TRIPOS>ATOM
   1 N1            -0.0179     1.4659     0.0101 N.3     
   2 C2             0.0021    -0.0041     0.0020 C.3     
   3 C3             0.7497    -0.4921    -1.2417 C.3     
   4 O4             2.0659     0.0673    -1.2506 O.3     
   5 C5             2.0838     1.4973    -1.2437 C.3     
   6 C6             1.3496     2.0055    -0.0001 C.3     
   7 C7            -2.6158     4.9670     3.9190 C.2     
   8 N8            -1.8984     5.0447     2.8234 N.2     
   9 C9            -1.5980     3.7977     2.3857 C.ar    
  10 C10           -2.1792     2.8888     3.2871 C.ar    
  11 N11           -2.8175     3.6534     4.2481 N.pl3   
  12 C12           -2.0344     1.5231     3.0873 C.ar    
  13 C13           -1.3204     1.0580     2.0043 C.ar    
  14 C14           -0.7404     1.9516     1.1055 C.ar    
  15 C15           -0.8749     3.3144     1.2901 C.ar    
  16 N16           -4.1361     7.3650     6.2220 N.pl3   
  17 N17           -3.8420     6.0702     5.7832 N.2     
  18 C18           -3.1238     6.1221     4.6851 C.2     
  19 C19           -2.9179     7.5386     4.3586 C.ar    
  20 C20           -2.2502     8.2078     3.3313 C.ar    
  21 C21           -2.2407     9.5732     3.3043 C.ar    
  22 C22           -2.8896    10.3041     4.2909 C.ar    
  23 C23           -3.5544     9.6661     5.3134 C.ar    
  24 C24           -3.5771     8.2742     5.3600 C.ar    
  25 C25           -6.4065     7.4461     7.1301 C.3     
  26 C26           -4.9230     7.6982     7.4120 C.3     
  27 O27           -4.5018     6.8811     8.5061 O.3     
  28 C28           -5.1913     7.1439     9.7298 C.3     
  29 C29           -6.6856     6.8695     9.5411 C.3     
  30 C30           -7.2159     7.7392     8.3971 C.3     
  31 N31           -1.5320    10.2804     2.2140 N.pl3   
  32 O32           -0.9608     9.6447     1.3461 O.2     
  33 O33           -1.5201    11.4980     2.1846 O.2     
  34 H34            0.5087    -0.3661     0.8967 H       
  35 H35           -1.0202    -0.3818    -0.0162 H       
  36 H36            0.8167    -1.5799    -1.2226 H       
  37 H37            0.2136    -0.1754    -2.1363 H       
  38 H38            3.1155     1.8483    -1.2262 H       
  39 H39            1.5864     1.8718    -2.1384 H       
  40 H40            1.3110     3.0946    -0.0198 H       
  41 H41            1.8778     1.6756     0.8946 H       
  42 H42           -3.3146     3.3209     5.0118 H       
  43 H43           -2.4808     0.8253     3.7803 H       
  44 H44           -1.2090    -0.0053     1.8514 H       
  45 H45           -0.4241     4.0035     0.5912 H       
  46 H46           -1.7423     7.6473     2.5603 H       
  47 H47           -2.8722    11.3834     4.2557 H       
  48 H48           -4.0560    10.2423     6.0767 H       
  49 H49           -6.7406     8.1005     6.3249 H       
  50 H50           -6.5502     6.4057     6.8386 H       
  51 H51           -4.7742     8.7482     7.6639 H       
  52 H52           -4.7991     6.4966    10.5143 H       
  53 H53           -5.0460     8.1866    10.0123 H       
  54 H54           -6.8349     5.8175     9.2983 H       
  55 H55           -7.2193     7.1115    10.4602 H       
  56 H56           -7.1121     8.7917     8.6608 H       
  57 H57           -8.2664     7.5082     8.2203 H       
@<TRIPOS>BOND
   1    1    2 1
   2    1    6 1
   3    1   14 1
   4    2    3 1
   5    2   34 1
   6    2   35 1
   7    3    4 1
   8    3   36 1
   9    3   37 1
  10    4    5 1
  11    5    6 1
  12    5   38 1
  13    5   39 1
  14    6   40 1
  15    6   41 1
  16    7    8 2
  17    7   11 1
  18    7   18 1
  19    8    9 1
  20    9   10 ar
  21    9   15 ar
  22   10   11 1
  23   10   12 ar
  24   11   42 1
  25   12   13 ar
  26   12   43 1
  27   13   14 ar
  28   13   44 1
  29   14   15 ar
  30   15   45 1
  31   16   17 1
  32   16   24 1
  33   16   26 1
  34   17   18 2
  35   18   19 1
  36   19   20 ar
  37   19   24 ar
  38   20   21 ar
  39   20   46 1
  40   21   22 ar
  41   21   31 1
  42   22   23 ar
  43   22   47 1
  44   23   24 ar
  45   23   48 1
  46   25   26 1
  47   25   30 1
  48   25   49 1
  49   25   50 1
  50   26   27 1
  51   26   51 1
  52   27   28 1
  53   28   29 1
  54   28   52 1
  55   28   53 1
  56   29   30 1
  57   29   54 1
  58   29   55 1
  59   30   56 1
  60   30   57 1
  61   31   32 2
  62   31   33 2

#	End of record

