#	Name: ASD09740557
#	Creating user name:	WinNT
#	Creation time:	15. 06. 2019 21:23

#	Modifying user name:	WinNT
#	Modification time:	15. 06. 2019 21:23

#	Program:	/corina/corina34_cracker 3.40 0067  02.08.2006

@<TRIPOS>MOLECULE
ASD09740557
  70   74    0    0    0
SMALL
NO_CHARGES


@<TRIPOS>ATOM
   1 N1            -0.4530     1.0374     1.6108 N.2     
   2 C2            -0.3443    -0.2483     1.8357 C.2     
   3 C3             0.6433     1.7421     1.6400 C.2     
   4 S4             2.0053     0.6823     1.9933 S.3     
   5 C5             0.9082    -0.6948     2.0741 C.2     
   6 C6             0.7299     3.1994     1.4120 C.ar    
   7 C7            -0.4233     3.9314     1.1397 C.ar    
   8 C8             1.9686     3.8445     1.4753 C.ar    
   9 C9             2.0551     5.2037     1.2639 C.ar    
  10 C10            0.9135     5.9421     0.9872 C.ar    
  11 C11           -0.3357     5.3061     0.9259 C.ar    
  12 O12            1.0044     7.2798     0.7808 O.3     
  13 C13            2.3171     7.8437     0.7496 C.3     
  14 C14            2.2989     9.1329    -0.0741 C.3     
  15 C15            2.7718     8.1566     2.1765 C.3     
  16 C16           -1.5155     6.0655     0.6401 C.1     
  17 N17           -2.4515     6.6680     0.4133 N.1     
  18 C18            1.2919    -2.0944     2.3539 C.ar    
  19 C19            2.3373    -2.6893     1.6416 C.ar    
  20 C20            2.6904    -3.9963     1.9076 C.ar    
  21 C21            2.0086    -4.7132     2.8786 C.ar    
  22 C22            0.9737    -4.1294     3.5856 C.ar    
  23 C23            0.6149    -2.8218     3.3332 C.ar    
  24 C24            3.2235    -2.1302     0.5495 C.3     
  25 C25            4.4337    -3.0859     0.4831 C.3     
  26 C26            3.8396    -4.4085     1.0122 C.3     
  27 N27            3.3493    -5.2264    -0.1000 N.am    
  28 C28            3.2634    -6.5647     0.0344 C.2     
  29 N29            2.8124    -7.3171    -0.9888 N.am    
  30 O30            3.5928    -7.0932     1.0787 O.2     
  31 C31            2.3749    -6.8427    -2.3149 C.3     
  32 C32            2.5732    -8.0090    -3.3008 C.3     
  33 C33            3.1156    -9.1738    -2.4406 C.3     
  34 C34            2.6610    -8.7903    -1.0137 C.3     
  35 N35            2.5163   -10.4494    -2.8549 N.3     
  36 C36            2.8425   -10.7544    -4.2543 C.3     
  37 C37            2.9360   -11.5413    -1.9664 C.3     
  38 H38           -1.1995    -0.9079     1.8313 H       
  39 H39           -1.3818     3.4358     1.0941 H       
  40 H40            2.8610     3.2757     1.6910 H       
  41 H41            3.0151     5.6959     1.3142 H       
  42 H42            3.0074     7.1325     0.2960 H       
  43 H43            1.6086     9.8442     0.3795 H       
  44 H44            3.3002     9.5630    -0.0979 H       
  45 H45            1.9750     8.9100    -1.0907 H       
  46 H46            2.7848     7.2381     2.7633 H       
  47 H47            3.7731     8.5867     2.1527 H       
  48 H48            2.0816     8.8678     2.6301 H       
  49 H49            2.2878    -5.7360     3.0843 H       
  50 H50            0.4486    -4.6967     4.3398 H       
  51 H51           -0.1933    -2.3654     3.8855 H       
  52 H52            2.6929    -2.1250    -0.4026 H       
  53 H53            3.5507    -1.1227     0.8066 H       
  54 H54            4.7812    -3.2004    -0.5436 H       
  55 H55            5.2391    -2.7368     1.1294 H       
  56 H56            4.5875    -4.9567     1.5850 H       
  57 H57            3.0866    -4.8047    -0.9331 H       
  58 H58            1.3225    -6.5610    -2.2798 H       
  59 H59            2.9801    -5.9898    -2.6223 H       
  60 H60            1.6223    -8.2856    -3.7562 H       
  61 H61            3.2969    -7.7366    -4.0690 H       
  62 H62            4.2032    -9.2209    -2.4965 H       
  63 H63            3.3026    -9.2579    -0.2669 H       
  64 H64            1.6188    -9.0673    -0.8546 H       
  65 H65            3.9243   -10.8231    -4.3686 H       
  66 H66            2.3865   -11.7038    -4.5350 H       
  67 H67            2.4587    -9.9627    -4.8977 H       
  68 H68            2.5394   -11.3685    -0.9659 H       
  69 H69            2.5554   -12.4881    -2.3495 H       
  70 H70            4.0246   -11.5776    -1.9245 H       
@<TRIPOS>BOND
   1    1    2 1
   2    1    3 2
   3    2    5 2
   4    2   38 1
   5    3    4 1
   6    3    6 1
   7    4    5 1
   8    5   18 1
   9    6    7 ar
  10    6    8 ar
  11    7   11 ar
  12    7   39 1
  13    8    9 ar
  14    8   40 1
  15    9   10 ar
  16    9   41 1
  17   10   11 ar
  18   10   12 1
  19   11   16 1
  20   12   13 1
  21   13   14 1
  22   13   15 1
  23   13   42 1
  24   14   43 1
  25   14   44 1
  26   14   45 1
  27   15   46 1
  28   15   47 1
  29   15   48 1
  30   16   17 3
  31   18   19 ar
  32   18   23 ar
  33   19   20 ar
  34   19   24 1
  35   20   21 ar
  36   20   26 1
  37   21   22 ar
  38   21   49 1
  39   22   23 ar
  40   22   50 1
  41   23   51 1
  42   24   25 1
  43   24   52 1
  44   24   53 1
  45   25   26 1
  46   25   54 1
  47   25   55 1
  48   26   27 1
  49   26   56 1
  50   27   28 am
  51   27   57 1
  52   28   29 am
  53   28   30 2
  54   29   31 1
  55   29   34 1
  56   31   32 1
  57   31   58 1
  58   31   59 1
  59   32   33 1
  60   32   60 1
  61   32   61 1
  62   33   34 1
  63   33   35 1
  64   33   62 1
  65   34   63 1
  66   34   64 1
  67   35   36 1
  68   35   37 1
  69   36   65 1
  70   36   66 1
  71   36   67 1
  72   37   68 1
  73   37   69 1
  74   37   70 1

#	End of record

