#	Name: ASD02198814
#	Creating user name:	WinNT
#	Creation time:	15. 06. 2019 20:20

#	Modifying user name:	WinNT
#	Modification time:	15. 06. 2019 20:20

#	Program:	/corina/corina34_cracker 3.40 0067  02.08.2006

@<TRIPOS>MOLECULE
ASD02198814
  56   60    0    0    0
SMALL
NO_CHARGES


@<TRIPOS>ATOM
   1 C1            -0.0436     1.5035    -0.1143 C.2     
   2 C2            -0.0738     0.1638     0.0984 C.2     
   3 N3             1.0703    -0.5382     0.2607 N.pl3   
   4 N4             2.2349    -0.0038     0.2265 N.2     
   5 C5             2.4068     1.2857     0.0280 C.2     
   6 C6             1.2214     2.1371    -0.1600 C.2     
   7 C7             0.9783    -1.9171     0.4774 C.ar    
   8 C8             1.5801    -2.4892     1.5976 C.ar    
   9 C9             1.4871    -3.8546     1.8091 C.ar    
  10 C10            0.7957    -4.6502     0.9062 C.ar    
  11 C11            0.1971    -4.0782    -0.2097 C.ar    
  12 C12            0.2827    -2.7170    -0.4199 C.ar    
  13 C13            3.7639     1.8675    -0.0049 C.2     
  14 N14            4.3059     2.6073    -1.0182 N.pl3   
  15 N15            5.6078     2.9589    -0.6405 N.2     
  16 C16            5.8516     2.4596     0.5449 C.2     
  17 C17            4.7198     1.7718     0.9826 C.2     
  18 C18            3.6729     2.9517    -2.2192 C.ar    
  19 C19            2.9106     2.0101    -2.8983 C.ar    
  20 C20            2.2863     2.3499    -4.0831 C.ar    
  21 C21            2.4187     3.6262    -4.5956 C.ar    
  22 C22            3.1797     4.5712    -3.9213 C.ar    
  23 C23            3.8020     4.2361    -2.7293 C.ar    
  24 O24            1.3247     3.3402    -0.3480 O.2     
  25 N25            0.7014    -6.0323     1.1199 N.pl3   
  26 N26            1.2530    -6.7396     2.1960 N.2     
  27 C27            0.9540    -8.0054     2.0499 C.2     
  28 C28            0.2032    -8.1457     0.8776 C.2     
  29 C29            0.0570    -6.9181     0.3271 C.2     
  30 O30            3.3098     5.8259    -4.4270 O.3     
  31 C31            2.6361     6.1029    -5.6565 C.3     
  32 F32            1.2612     5.9056    -5.4896 F       
  33 F33            2.8749     7.4297    -6.0303 F       
  34 F34            3.1129     5.2446    -6.6531 F       
  35 C35            7.1402     2.6080     1.3122 C.3     
  36 O36            2.2570    -1.7082     2.4801 O.3     
  37 C37            2.8480    -2.3624     3.6047 C.3     
  38 H38           -0.9548     2.0674    -0.2488 H       
  39 H39           -1.0238    -0.3483     0.1389 H       
  40 H40            1.9527    -4.3001     2.6758 H       
  41 H41           -0.3401    -4.6993    -0.9111 H       
  42 H42           -0.1834    -2.2747    -1.2880 H       
  43 H43            4.6139     1.2526     1.9237 H       
  44 H44            2.8061     1.0116    -2.5002 H       
  45 H45            1.6939     1.6163    -4.6098 H       
  46 H46            1.9297     3.8887    -5.5221 H       
  47 H47            4.3942     4.9701    -2.2031 H       
  48 H48            1.2382    -8.8042     2.7189 H       
  49 H49           -0.1933    -9.0699     0.4839 H       
  50 H50           -0.4732    -6.6882    -0.5852 H       
  51 H51            7.0924     3.5027     1.9330 H       
  52 H52            7.2886     1.7336     1.9457 H       
  53 H53            7.9716     2.6952     0.6127 H       
  54 H54            2.0707    -2.8567     4.1874 H       
  55 H55            3.5680    -3.1033     3.2571 H       
  56 H56            3.3562    -1.6262     4.2275 H       
@<TRIPOS>BOND
   1    1    2 2
   2    1    6 1
   3    1   38 1
   4    2    3 1
   5    2   39 1
   6    3    4 1
   7    3    7 1
   8    4    5 2
   9    5    6 1
  10    5   13 1
  11    6   24 2
  12    7    8 ar
  13    7   12 ar
  14    8    9 ar
  15    8   36 1
  16    9   10 ar
  17    9   40 1
  18   10   11 ar
  19   10   25 1
  20   11   12 ar
  21   11   41 1
  22   12   42 1
  23   13   14 1
  24   13   17 2
  25   14   15 1
  26   14   18 1
  27   15   16 2
  28   16   17 1
  29   16   35 1
  30   17   43 1
  31   18   19 ar
  32   18   23 ar
  33   19   20 ar
  34   19   44 1
  35   20   21 ar
  36   20   45 1
  37   21   22 ar
  38   21   46 1
  39   22   23 ar
  40   22   30 1
  41   23   47 1
  42   25   26 1
  43   25   29 1
  44   26   27 2
  45   27   28 1
  46   27   48 1
  47   28   29 2
  48   28   49 1
  49   29   50 1
  50   30   31 1
  51   31   32 1
  52   31   33 1
  53   31   34 1
  54   35   51 1
  55   35   52 1
  56   35   53 1
  57   36   37 1
  58   37   54 1
  59   37   55 1
  60   37   56 1

#	End of record

