#	Name: ASD03730372
#	Creating user name:	WinNT
#	Creation time:	15. 06. 2019 20:44

#	Modifying user name:	WinNT
#	Modification time:	15. 06. 2019 20:44

#	Program:	/corina/corina34_cracker 3.40 0067  02.08.2006

@<TRIPOS>MOLECULE
ASD03730372
  70   75    0    0    0
SMALL
NO_CHARGES


@<TRIPOS>ATOM
   1 C1            -0.0195     1.4745     0.0033 C.2     
   2 C2             0.0048    -0.0037     0.0090 C.ar    
   3 C3             1.2167    -0.6854    -0.1145 C.ar    
   4 C4             1.2324    -2.0646    -0.1079 C.ar    
   5 C5             0.0503    -2.7725     0.0204 C.ar    
   6 C6            -1.1541    -2.1031     0.1431 C.ar    
   7 C7            -1.1832    -0.7236     0.1438 C.ar    
   8 O8             0.8915     2.0993     0.5104 O.2     
   9 N9            -1.0490     2.1294    -0.5693 N.am    
  10 C10            2.5398    -2.8023    -0.2411 C.3     
  11 O11           -0.2827    -3.2554     6.3558 O.3     
  12 C12           -0.1879    -3.4944     7.7725 C.3     
  13 O13            0.7338    -4.5960     7.8727 O.3     
  14 C14            1.5297    -4.5089     6.7665 C.ar    
  15 C15            0.9036    -3.6852     5.8337 C.ar    
  16 C16            2.7582    -5.0742     6.4756 C.ar    
  17 C17            3.3761    -4.8278     5.2533 C.ar    
  18 C18            2.7371    -4.0100     4.3263 C.ar    
  19 C19            1.5150    -3.4399     4.6157 C.ar    
  20 O20            4.5778    -5.2661     4.7797 O.3     
  21 C21            3.6272    -3.9595     3.1134 C.3     
  22 C22            4.6066    -5.1177     3.3470 C.3     
  23 N23            3.1080    -3.0331     1.0894 N.am    
  24 C24            2.8565    -4.1271     1.8356 C.2     
  25 C25            4.3368    -2.6447     2.9803 C.ar    
  26 C26            5.1886    -1.9363     3.7981 C.ar    
  27 C27            5.6940    -0.7173     3.3825 C.ar    
  28 C28            5.3412    -0.2119     2.1444 C.ar    
  29 C29            4.4876    -0.9173     1.3221 C.ar    
  30 C30            3.9743    -2.1454     1.7320 C.ar    
  31 O31            2.1470    -5.0634     1.5339 O.2     
  32 C32           -2.0832     1.3819    -1.2890 C.3     
  33 C33           -1.1340     3.5886    -0.4718 C.3     
  34 C34           -0.4049     4.2223    -1.6584 C.3     
  35 C35           -0.4936     5.7463    -1.5566 C.3     
  36 C36            0.2354     6.3800    -2.7432 C.3     
  37 C37            0.1467     7.9040    -2.6414 C.3     
  38 C38            0.8758     8.5377    -3.8279 C.3     
  39 H39            2.1399    -0.1341    -0.2153 H       
  40 H40            0.0680    -3.8524     0.0242 H       
  41 H41           -2.0732    -2.6615     0.2429 H       
  42 H42           -2.1236    -0.2021     0.2438 H       
  43 H43            2.3684    -3.7592    -0.7340 H       
  44 H44            3.2339    -2.2071    -0.8344 H       
  45 H45            0.2076    -2.6165     8.2833 H       
  46 H46           -1.1603    -3.7703     8.1803 H       
  47 H47            3.2411    -5.7112     7.2019 H       
  48 H48            1.0335    -2.8007     3.8904 H       
  49 H49            5.6073    -4.8534     3.0053 H       
  50 H50            4.2562    -6.0259     2.8567 H       
  51 H51            5.4626    -2.3328     4.7646 H       
  52 H52            6.3628    -0.1619     4.0233 H       
  53 H53            5.7356     0.7397     1.8201 H       
  54 H54            4.2162    -0.5159     0.3569 H       
  55 H55           -2.8378     1.0344    -0.5834 H       
  56 H56           -2.5502     2.0299    -2.0306 H       
  57 H57           -1.6309     0.5251    -1.7886 H       
  58 H58           -2.1805     3.8933    -0.4837 H       
  59 H59           -0.6701     3.9183     0.4578 H       
  60 H60            0.6416     3.9177    -1.6465 H       
  61 H61           -0.8688     3.8926    -2.5880 H       
  62 H62           -1.5401     6.0510    -1.5684 H       
  63 H63           -0.0297     6.0760    -0.6270 H       
  64 H64            1.2819     6.0754    -2.7313 H       
  65 H65           -0.2285     6.0503    -3.6728 H       
  66 H66           -0.8998     8.2087    -2.6532 H       
  67 H67            0.6106     8.2337    -1.7118 H       
  68 H68            1.9223     8.2330    -3.8161 H       
  69 H69            0.4119     8.2080    -4.7576 H       
  70 H70            0.8126     9.6234    -3.7554 H       
@<TRIPOS>BOND
   1    1    2 1
   2    1    8 2
   3    1    9 am
   4    2    3 ar
   5    2    7 ar
   6    3    4 ar
   7    3   39 1
   8    4    5 ar
   9    4   10 1
  10    5    6 ar
  11    5   40 1
  12    6    7 ar
  13    6   41 1
  14    7   42 1
  15    9   32 1
  16    9   33 1
  17   10   23 1
  18   10   43 1
  19   10   44 1
  20   11   12 1
  21   11   15 1
  22   12   13 1
  23   12   45 1
  24   12   46 1
  25   13   14 1
  26   14   15 ar
  27   14   16 ar
  28   15   19 ar
  29   16   17 ar
  30   16   47 1
  31   17   18 ar
  32   17   20 1
  33   18   19 ar
  34   18   21 1
  35   19   48 1
  36   20   22 1
  37   21   22 1
  38   21   24 1
  39   21   25 1
  40   22   49 1
  41   22   50 1
  42   23   24 am
  43   23   30 1
  44   24   31 2
  45   25   26 ar
  46   25   30 ar
  47   26   27 ar
  48   26   51 1
  49   27   28 ar
  50   27   52 1
  51   28   29 ar
  52   28   53 1
  53   29   30 ar
  54   29   54 1
  55   32   55 1
  56   32   56 1
  57   32   57 1
  58   33   34 1
  59   33   58 1
  60   33   59 1
  61   34   35 1
  62   34   60 1
  63   34   61 1
  64   35   36 1
  65   35   62 1
  66   35   63 1
  67   36   37 1
  68   36   64 1
  69   36   65 1
  70   37   38 1
  71   37   66 1
  72   37   67 1
  73   38   68 1
  74   38   69 1
  75   38   70 1

#	End of record

