#	Name: ASD00461004
#	Creating user name:	WinNT
#	Creation time:	15. 06. 2019 18:36

#	Modifying user name:	WinNT
#	Modification time:	15. 06. 2019 18:36

#	Program:	/corina/corina34_cracker 3.40 0067  02.08.2006

@<TRIPOS>MOLECULE
ASD00461004
  38   41    0    0    0
SMALL
NO_CHARGES


@<TRIPOS>ATOM
   1 C1            -0.2154     1.0682    -1.3354 C.ar    
   2 C2            -0.1439    -0.2552    -1.0223 C.ar    
   3 C3             0.9372     1.8298    -1.4688 C.ar    
   4 C4             1.1066    -0.8761    -0.8275 C.ar    
   5 C5             2.1720     1.2500    -1.2848 C.ar    
   6 N6             1.3927    -2.1547    -0.5164 N.2     
   7 C7             2.2646    -0.1027    -0.9635 C.ar    
   8 C8             2.6242    -2.4783    -0.3922 C.2     
   9 S9             3.6527    -1.1440    -0.6647 S.3     
  10 C10            3.1062    -3.8638    -0.0473 C.3     
  11 O11            2.6651    -4.7843    -1.0474 O.3     
  12 C12            4.6120    -3.8713     0.0133 C.ar    
  13 C13            5.2673    -3.1667     1.0058 C.ar    
  14 C14            6.6485    -3.1735     1.0613 C.ar    
  15 C15            7.3744    -3.8853     0.1246 C.ar    
  16 C16            6.7190    -4.5906    -0.8673 C.ar    
  17 C17            5.3377    -4.5873    -0.9203 C.ar    
  18 C18            2.5476    -4.2712     1.2918 C.ar    
  19 C19            2.1188    -5.5693     1.4953 C.ar    
  20 C20            1.6065    -5.9445     2.7233 C.ar    
  21 C21            1.5229    -5.0206     3.7491 C.ar    
  22 C22            1.9525    -3.7199     3.5452 C.ar    
  23 C23            2.4696    -3.3477     2.3176 C.ar    
  24 Cl24           1.8482    -2.5590     4.8317 Cl      
  25 Cl25           0.8792    -5.4909     5.2912 Cl      
  26 H26           -1.1802     1.5295    -1.4862 H       
  27 H27           -1.0510    -0.8326    -0.9221 H       
  28 H28            0.8652     2.8783    -1.7176 H       
  29 H29            3.0685     1.8431    -1.3895 H       
  30 H30            1.7039    -4.8318    -1.1417 H       
  31 H31            4.7002    -2.6106     1.7376 H       
  32 H32            7.1605    -2.6224     1.8363 H       
  33 H33            8.4535    -3.8900     0.1676 H       
  34 H34            7.2862    -5.1464    -1.5993 H       
  35 H35            4.8257    -5.1384    -1.6952 H       
  36 H36            2.1836    -6.2910     0.6944 H       
  37 H37            1.2714    -6.9589     2.8816 H       
  38 H38            2.8048    -2.3336     2.1579 H       
@<TRIPOS>BOND
   1    1    2 ar
   2    1    3 ar
   3    1   26 1
   4    2    4 ar
   5    2   27 1
   6    3    5 ar
   7    3   28 1
   8    4    6 1
   9    4    7 ar
  10    5    7 ar
  11    5   29 1
  12    6    8 2
  13    7    9 1
  14    8   10 1
  15    8    9 1
  16   10   11 1
  17   10   12 1
  18   10   18 1
  19   11   30 1
  20   12   13 ar
  21   12   17 ar
  22   13   14 ar
  23   13   31 1
  24   14   15 ar
  25   14   32 1
  26   15   16 ar
  27   15   33 1
  28   16   17 ar
  29   16   34 1
  30   17   35 1
  31   18   19 ar
  32   18   23 ar
  33   19   20 ar
  34   19   36 1
  35   20   21 ar
  36   20   37 1
  37   21   22 ar
  38   21   25 1
  39   22   23 ar
  40   22   24 1
  41   23   38 1

#	End of record

