#	Name: ASD07930412
#	Creating user name:	WinNT
#	Creation time:	15. 06. 2019 21:12

#	Modifying user name:	WinNT
#	Modification time:	15. 06. 2019 21:12

#	Program:	/corina/corina34_cracker 3.40 0067  02.08.2006

@<TRIPOS>MOLECULE
ASD07930412
  45   47    0    0    0
SMALL
NO_CHARGES


@<TRIPOS>ATOM
   1 N1             0.0005     1.2713     0.0036 N.2     
   2 N2            -1.1612    -0.7564     0.0075 N.pl3   
   3 C3            -1.3888    -1.7914    -1.0064 C.3     
   4 C4            -0.2711    -2.8398    -0.9193 C.3     
   5 S5             1.3267    -1.9882    -1.1093 S.o2    
   6 N6             1.2082    -0.7372    -0.0149 N.am    
   7 C7             0.0132    -0.0320    -0.0010 C.2     
   8 C8             2.3110    -0.3989     0.8882 C.3     
   9 C9            -1.3840    -1.1538    -2.3973 C.3     
  10 C10           -2.7200    -2.4533    -0.7599 C.ar    
  11 C11           -3.4610    -2.1182     0.3561 C.ar    
  12 C12           -4.6881    -2.7283     0.5827 C.ar    
  13 C13           -5.1669    -3.6742    -0.3140 C.ar    
  14 C14           -4.4225    -4.0065    -1.4291 C.ar    
  15 C15           -3.2020    -3.3932    -1.6557 C.ar    
  16 N16           -5.4404    -2.3906     1.7131 N.am    
  17 C17           -6.7862    -2.3667     1.6445 C.2     
  18 O18           -7.3440    -2.5430     0.5780 O.2     
  19 C19           -7.5811    -2.1273     2.8602 C.2     
  20 O20            2.3891    -2.7937    -0.6177 O.2     
  21 O21            1.4100    -1.3488    -2.3755 O.2     
  22 N22           -8.8847    -2.0819     2.9180 N.2     
  23 F23           -2.4756    -3.7193    -2.7472 F       
  24 C24           -9.3963    -1.8562     4.0994 C.2     
  25 C25           -8.5132    -1.7008     5.0982 C.2     
  26 S26           -6.9286    -1.8631     4.4743 S.3     
  27 C27          -10.8840    -1.7752     4.3259 C.3     
  28 H28            0.8357     1.7646    -0.0029 H       
  29 H29           -1.8367    -0.5788     0.6805 H       
  30 H30           -0.3091    -3.3378     0.0495 H       
  31 H31           -0.3931    -3.5740    -1.7156 H       
  32 H32            2.9601     0.3347     0.4101 H       
  33 H33            1.9094     0.0183     1.8116 H       
  34 H34            2.8840    -1.2980     1.1147 H       
  35 H35           -0.4201    -0.6772    -2.5751 H       
  36 H36           -1.5533    -1.9235    -3.1503 H       
  37 H37           -2.1754    -0.4066    -2.4572 H       
  38 H38           -3.0865    -1.3825     1.0525 H       
  39 H39           -6.1206    -4.1501    -0.1396 H       
  40 H40           -4.7944    -4.7424    -2.1266 H       
  41 H41           -4.9933    -2.1736     2.5461 H       
  42 H42           -8.7631    -1.5085     6.1312 H       
  43 H43          -11.2702    -2.7667     4.5621 H       
  44 H44          -11.0890    -1.0983     5.1553 H       
  45 H45          -11.3690    -1.4018     3.4239 H       
@<TRIPOS>BOND
   1    1    7 2
   2    1   28 1
   3    2    3 1
   4    2    7 1
   5    2   29 1
   6    3    4 1
   7    3    9 1
   8    3   10 1
   9    4    5 1
  10    4   30 1
  11    4   31 1
  12    5    6 am
  13    5   20 2
  14    5   21 2
  15    6    7 1
  16    6    8 1
  17    8   32 1
  18    8   33 1
  19    8   34 1
  20    9   35 1
  21    9   36 1
  22    9   37 1
  23   10   11 ar
  24   10   15 ar
  25   11   12 ar
  26   11   38 1
  27   12   13 ar
  28   12   16 1
  29   13   14 ar
  30   13   39 1
  31   14   15 ar
  32   14   40 1
  33   15   23 1
  34   16   17 am
  35   16   41 1
  36   17   18 2
  37   17   19 1
  38   19   22 2
  39   19   26 1
  40   22   24 1
  41   24   25 2
  42   24   27 1
  43   25   26 1
  44   25   42 1
  45   27   43 1
  46   27   44 1
  47   27   45 1

#	End of record

