#	Name: ASD01881797
#	Creating user name:	WinNT
#	Creation time:	15. 06. 2019 19:43

#	Modifying user name:	WinNT
#	Modification time:	15. 06. 2019 19:43

#	Program:	/corina/corina34_cracker 3.40 0067  02.08.2006

@<TRIPOS>MOLECULE
ASD01881797
  45   47    0    0    0
SMALL
NO_CHARGES


@<TRIPOS>ATOM
   1 C1            -0.0169     1.3919     0.0097 C.ar    
   2 C2             0.0021    -0.0041     0.0020 C.ar    
   3 C3             1.2374    -0.6634    -0.0133 C.ar    
   4 C4             2.3897     0.1029    -0.0202 C.ar    
   5 C5             2.2856     1.4821    -0.0118 C.ar    
   6 N6             1.1076     2.0766     0.0026 N.ar    
   7 C7            -1.2595    -0.7725     0.0104 C.2     
   8 O8            -1.2311    -1.9868     0.0036 O.2     
   9 O9            -2.4415    -0.1265     0.0256 O.3     
  10 C10            3.5384     2.3198    -0.0192 C.3     
  11 O11            4.6831     1.4646    -0.0347 O.3     
  12 N12            9.7122     3.6352    -0.0715 N.pl3   
  13 N13           10.4064     2.4163    -0.0840 N.2     
  14 N14            9.5644     1.4440    -0.0806 N.2     
  15 C15            8.3022     1.9171    -0.0663 C.ar    
  16 C16            8.3723     3.3211    -0.0602 C.ar    
  17 C17            7.0465     1.2945    -0.0581 C.ar    
  18 C18            5.9029     2.0659    -0.0431 C.ar    
  19 C19            5.9884     3.4561    -0.0369 C.ar    
  20 C20            7.2056     4.0770    -0.0462 C.ar    
  21 C21           10.2981     4.9779    -0.0652 C.3     
  22 C22           10.4935     5.4559    -1.5054 C.3     
  23 C23            9.1403     5.4932    -2.2184 C.3     
  24 C24           11.1054     6.8582    -1.4988 C.3     
  25 C25           11.4302     4.4941    -2.2392 C.3     
  26 Br26           6.9206    -0.5923    -0.0667 Br      
  27 H27           -0.9620     1.9145     0.0170 H       
  28 H28            1.2895    -1.7422    -0.0192 H       
  29 H29            3.3601    -0.3710    -0.0316 H       
  30 H30           -3.2399    -0.6721     0.0306 H       
  31 H31            3.5463     2.9537    -0.9059 H       
  32 H32            3.5633     2.9441     0.8739 H       
  33 H33            5.0852     4.0481    -0.0255 H       
  34 H34            7.2613     5.1555    -0.0415 H       
  35 H35            9.6307     5.6631     0.4576 H       
  36 H36           11.2621     4.9513     0.4428 H       
  37 H37            8.4729     6.1783    -1.6956 H       
  38 H38            9.2795     5.8337    -3.2445 H       
  39 H39            8.7044     4.4942    -2.2231 H       
  40 H40           12.0694     6.8316    -0.9909 H       
  41 H41           11.2446     7.1987    -2.5249 H       
  42 H42           10.4380     7.5433    -0.9760 H       
  43 H43           10.9943     3.4951    -2.2439 H       
  44 H44           11.5695     4.8346    -3.2653 H       
  45 H45           12.3943     4.4675    -1.7313 H       
@<TRIPOS>BOND
   1    1    2 ar
   2    1    6 ar
   3    1   27 1
   4    2    3 ar
   5    2    7 1
   6    3    4 ar
   7    3   28 1
   8    4    5 ar
   9    4   29 1
  10    5    6 ar
  11    5   10 1
  12    7    8 2
  13    7    9 1
  14    9   30 1
  15   10   11 1
  16   10   31 1
  17   10   32 1
  18   11   18 1
  19   12   13 1
  20   12   16 1
  21   12   21 1
  22   13   14 2
  23   14   15 1
  24   15   16 ar
  25   15   17 ar
  26   16   20 ar
  27   17   18 ar
  28   17   26 1
  29   18   19 ar
  30   19   20 ar
  31   19   33 1
  32   20   34 1
  33   21   22 1
  34   21   35 1
  35   21   36 1
  36   22   23 1
  37   22   24 1
  38   22   25 1
  39   23   37 1
  40   23   38 1
  41   23   39 1
  42   24   40 1
  43   24   41 1
  44   24   42 1
  45   25   43 1
  46   25   44 1
  47   25   45 1

#	End of record

