#	Name: ASD02030625
#	Creating user name:	WinNT
#	Creation time:	15. 06. 2019 20:15

#	Modifying user name:	WinNT
#	Modification time:	15. 06. 2019 20:15

#	Program:	/corina/corina34_cracker 3.40 0067  02.08.2006

@<TRIPOS>MOLECULE
ASD02030625
  64   67    0    0    0
SMALL
NO_CHARGES


@<TRIPOS>ATOM
   1 C1             0.1571     1.1529    -0.0913 C.ar    
   2 C2             0.0175    -0.2186    -0.0951 C.ar    
   3 C3             1.1459    -1.0235    -0.1630 C.ar    
   4 C4             2.4006    -0.4422    -0.2205 C.ar    
   5 C5             2.5392     0.9398    -0.2102 C.ar    
   6 C6             1.4163     1.7352    -0.1546 C.ar    
   7 C7             1.4935     3.2414    -0.1738 C.3     
   8 C8             3.9365     1.5006    -0.2463 C.3     
   9 C9             3.9274     2.9538    -0.7178 C.3     
  10 N10            2.8817     3.6677     0.0320 N.am    
  11 C11            0.9969     3.7594    -1.5250 C.3     
  12 O12            1.7389     3.1370    -2.5757 O.3     
  13 C13            1.4199     3.4899    -3.8496 C.ar    
  14 C14            3.1881     4.6735     0.8752 C.2     
  15 O15            4.3511     4.9583     1.0846 O.2     
  16 C16            2.1099     5.4302     1.5453 C.ar    
  17 C17            0.7701     4.2078    -6.4431 C.ar    
  18 C18            0.0934     4.7785    -5.3753 C.ar    
  19 C19            0.4175     4.4200    -4.0812 C.ar    
  20 C20            2.1008     2.9239    -4.9172 C.ar    
  21 C21            1.7767     3.2822    -6.2112 C.ar    
  22 C22            2.2884     5.8996     2.8480 C.ar    
  23 C23            0.9111     5.6836     0.8761 C.ar    
  24 C24           -0.0911     6.3906     1.5063 C.ar    
  25 C25            0.0898     6.8492     2.8008 C.ar    
  26 C26            1.2790     6.6055     3.4679 C.ar    
  27 O27            0.4511     4.5606    -7.7170 O.3     
  28 C28            1.1886     3.9333    -8.7679 C.3     
  29 C29            0.6927     4.4522   -10.1191 C.3     
  30 O30            1.0195    -2.3766    -0.1725 O.3     
  31 C31           -0.2939    -2.9068     0.0173 C.3     
  32 C32           -0.9420    -3.1636    -1.3446 C.3     
  33 C33           -0.2057    -4.2208     0.7961 C.3     
  34 Cl34          -1.1762     7.7391     3.5875 Cl      
  35 H35           -0.7208     1.7801    -0.0432 H       
  36 H36           -0.9649    -0.6644    -0.0450 H       
  37 H37            3.2790    -1.0682    -0.2736 H       
  38 H38            0.8679     3.6467     0.6215 H       
  39 H39            4.3687     1.4508     0.7531 H       
  40 H40            4.5439     0.9061    -0.9287 H       
  41 H41            4.8978     3.4106    -0.5235 H       
  42 H42            3.7073     2.9939    -1.7846 H       
  43 H43           -0.0612     3.5232    -1.6381 H       
  44 H44            1.1351     4.8396    -1.5731 H       
  45 H45           -0.6905     5.4991    -5.5558 H       
  46 H46           -0.1100     4.8638    -3.2498 H       
  47 H47            2.8847     2.2032    -4.7367 H       
  48 H48            2.3036     2.8378    -7.0427 H       
  49 H49            3.2150     5.7099     3.3693 H       
  50 H50            0.7691     5.3268    -0.1334 H       
  51 H51           -1.0187     6.5875     0.9895 H       
  52 H52            1.4159     6.9691     4.4756 H       
  53 H53            2.2480     4.1645    -8.6565 H       
  54 H54            1.0451     2.8539    -8.7183 H       
  55 H55           -0.3667     4.2210   -10.2305 H       
  56 H56            0.8362     5.5315   -10.1687 H       
  57 H57            1.2553     3.9736   -10.9208 H       
  58 H58           -0.8968    -2.1922     0.5776 H       
  59 H59           -0.3391    -3.8782    -1.9049 H       
  60 H60           -1.9437    -3.5680    -1.1998 H       
  61 H61           -1.0048    -2.2274    -1.8994 H       
  62 H62            0.2560    -4.0379     1.7663 H       
  63 H63           -1.2075    -4.6253     0.9409 H       
  64 H64            0.3972    -4.9355     0.2358 H       
@<TRIPOS>BOND
   1    1    2 ar
   2    1    6 ar
   3    1   35 1
   4    2    3 ar
   5    2   36 1
   6    3    4 ar
   7    3   30 1
   8    4    5 ar
   9    4   37 1
  10    5    6 ar
  11    5    8 1
  12    6    7 1
  13    7   10 1
  14    7   11 1
  15    7   38 1
  16    8    9 1
  17    8   39 1
  18    8   40 1
  19    9   10 1
  20    9   41 1
  21    9   42 1
  22   10   14 am
  23   11   12 1
  24   11   43 1
  25   11   44 1
  26   12   13 1
  27   13   20 ar
  28   13   19 ar
  29   14   15 2
  30   14   16 1
  31   16   23 ar
  32   16   22 ar
  33   17   18 ar
  34   17   21 ar
  35   17   27 1
  36   18   19 ar
  37   18   45 1
  38   19   46 1
  39   20   21 ar
  40   20   47 1
  41   21   48 1
  42   22   26 ar
  43   22   49 1
  44   23   24 ar
  45   23   50 1
  46   24   25 ar
  47   24   51 1
  48   25   26 ar
  49   25   34 1
  50   26   52 1
  51   27   28 1
  52   28   29 1
  53   28   53 1
  54   28   54 1
  55   29   55 1
  56   29   56 1
  57   29   57 1
  58   30   31 1
  59   31   32 1
  60   31   33 1
  61   31   58 1
  62   32   59 1
  63   32   60 1
  64   32   61 1
  65   33   62 1
  66   33   63 1
  67   33   64 1

#	End of record

