#	Name: ASD01670039
#	Creating user name:	WinNT
#	Creation time:	15. 06. 2019 19:22

#	Modifying user name:	WinNT
#	Modification time:	15. 06. 2019 19:22

#	Program:	/corina/corina34_cracker 3.40 0067  02.08.2006

@<TRIPOS>MOLECULE
ASD01670039
  33   35    0    0    0
SMALL
NO_CHARGES


@<TRIPOS>ATOM
   1 C1            -0.3259     0.9225     0.3813 C.ar    
   2 C2            -0.1598    -0.4500     0.3924 C.ar    
   3 C3             1.0987    -1.0015     0.2657 C.ar    
   4 C4             2.2128    -0.1768     0.1258 C.ar    
   5 C5             2.0327     1.2009     0.1161 C.ar    
   6 C6             0.7763     1.7484     0.2422 C.ar    
   7 C7             3.4070     1.8081    -0.0476 C.3     
   8 C8             4.3314     0.6116    -0.1234 C.2     
   9 O9             5.5367     0.6397    -0.2559 O.2     
  10 N10            3.5657    -0.4873    -0.0159 N.am    
  11 C11            4.0911    -1.8546    -0.0443 C.3     
  12 C12            4.0949    -2.3619    -1.4634 C.ar    
  13 C13            4.5261    -3.6604    -1.7410 C.ar    
  14 C14            4.5259    -4.1226    -3.0588 C.ar    
  15 C15            4.1003    -3.2948    -4.0766 C.ar    
  16 C16            3.6741    -2.0088    -3.7943 C.ar    
  17 C17            3.6668    -1.5462    -2.4904 C.ar    
  18 C18            4.9811    -4.5412    -0.6459 C.2     
  19 O19            5.0722    -4.1069     0.4849 O.2     
  20 O20            5.2948    -5.8262    -0.9011 O.3     
  21 H21           -1.3136     1.3491     0.4763 H       
  22 H22           -1.0198    -1.0941     0.5012 H       
  23 H23            1.2203    -2.0746     0.2753 H       
  24 H24            0.6505     2.8210     0.2327 H       
  25 H25            3.4601     2.3906    -0.9674 H       
  26 H26            3.6554     2.4287     0.8134 H       
  27 H27            5.1086    -1.8611     0.3466 H       
  28 H28            3.4617    -2.4985     0.5700 H       
  29 H29            4.8586    -5.1259    -3.2805 H       
  30 H30            4.1000    -3.6508    -5.0962 H       
  31 H31            3.3422    -1.3645    -4.5950 H       
  32 H32            3.3290    -0.5429    -2.2765 H       
  33 H33            5.5876    -6.3637    -0.1525 H       
@<TRIPOS>BOND
   1    1    2 ar
   2    1    6 ar
   3    1   21 1
   4    2    3 ar
   5    2   22 1
   6    3    4 ar
   7    3   23 1
   8    4    5 ar
   9    4   10 1
  10    5    6 ar
  11    5    7 1
  12    6   24 1
  13    7    8 1
  14    7   25 1
  15    7   26 1
  16    8    9 2
  17    8   10 am
  18   10   11 1
  19   11   12 1
  20   11   27 1
  21   11   28 1
  22   12   13 ar
  23   12   17 ar
  24   13   14 ar
  25   13   18 1
  26   14   15 ar
  27   14   29 1
  28   15   16 ar
  29   15   30 1
  30   16   17 ar
  31   16   31 1
  32   17   32 1
  33   18   19 2
  34   18   20 1
  35   20   33 1

#	End of record

