#	Name: ASD01200342
#	Creating user name:	WinNT
#	Creation time:	15. 06. 2019 19:09

#	Modifying user name:	WinNT
#	Modification time:	15. 06. 2019 19:09

#	Program:	/corina/corina34_cracker 3.40 0067  02.08.2006

@<TRIPOS>MOLECULE
ASD01200342
  53   55    0    0    0
SMALL
NO_CHARGES


@<TRIPOS>ATOM
   1 C1            -0.0225     1.8097     0.0120 C.3     
   2 S2             0.0021    -0.0041     0.0020 S.o2    
   3 O3             0.8448    -0.4970     1.0346 O.2     
   4 O4            -1.3093    -0.5195    -0.1821 O.2     
   5 N5             0.7961    -0.3989    -1.3965 N.am    
   6 C6             2.2585    -0.5701    -1.4252 C.3     
   7 C7             2.5626    -2.0107    -1.8408 C.3     
   8 N8             1.7643    -2.3942    -2.9971 N.am    
   9 C9             2.2468    -3.5067    -3.8191 C.3     
  10 C10            1.2013    -4.6238    -3.8299 C.3     
  11 C11            1.0533    -5.1974    -2.4192 C.3     
  12 C12           -0.0784    -6.2268    -2.4034 C.3     
  13 C13           -0.2264    -6.8004    -0.9927 C.3     
  14 C14            1.0823    -7.4748    -0.5765 C.3     
  15 C15            2.2141    -6.4454    -0.5923 C.3     
  16 C16            2.3621    -5.8718    -2.0030 C.3     
  17 C17            2.4820    -3.0253    -5.2277 C.2     
  18 O18            2.2678    -1.8670    -5.5164 O.2     
  19 N19            2.9305    -3.8820    -6.1665 N.am    
  20 C20            3.1475    -3.4380    -7.4657 C.2     
  21 N21            3.5760    -4.1766    -8.4409 N.2     
  22 C22            3.7258    -3.5899    -9.6137 C.2     
  23 C23            3.4089    -2.2938    -9.6302 C.2     
  24 S24            2.8813    -1.8399    -8.0118 S.3     
  25 C25            0.6245    -1.8039    -3.3598 C.2     
  26 O26            0.0074    -2.2641    -4.2969 O.2     
  27 C27            0.0689    -0.5987    -2.6589 C.3     
  28 H28            1.0001     2.1870     0.0043 H       
  29 H29           -0.5497     2.1708    -0.8711 H       
  30 H30           -0.5327     2.1613     0.9088 H       
  31 H31            2.6956     0.1207    -2.1462 H       
  32 H32            2.6708    -0.3783    -0.4346 H       
  33 H33            3.6201    -2.0965    -2.0906 H       
  34 H34            2.3355    -2.6792    -1.0104 H       
  35 H35            3.1804    -3.8868    -3.4044 H       
  36 H36            0.2437    -4.2220    -4.1611 H       
  37 H37            1.5196    -5.4127    -4.5113 H       
  38 H38            0.8218    -4.3921    -1.7220 H       
  39 H39           -1.0108    -5.7464    -2.6999 H       
  40 H40            0.1531    -7.0321    -3.1006 H       
  41 H41           -0.4579    -5.9952    -0.2955 H       
  42 H42           -1.0327    -7.5338    -0.9814 H       
  43 H43            0.9769    -7.8835     0.4285 H       
  44 H44            1.3139    -8.2801    -1.2737 H       
  45 H45            1.9826    -5.6401     0.1049 H       
  46 H46            3.1465    -6.9259    -0.2958 H       
  47 H47            2.5936    -6.6770    -2.7002 H       
  48 H48            3.1684    -5.1384    -2.0143 H       
  49 H49            3.1019    -4.8084    -5.9356 H       
  50 H50            4.0765    -4.1162   -10.4892 H       
  51 H51            3.4623    -1.6385   -10.4871 H       
  52 H52           -0.9894    -0.7545    -2.4499 H       
  53 H53            0.1922     0.2785    -3.2940 H       
@<TRIPOS>BOND
   1    1    2 1
   2    1   28 1
   3    1   29 1
   4    1   30 1
   5    2    3 2
   6    2    4 2
   7    2    5 am
   8    5    6 1
   9    5   27 1
  10    6    7 1
  11    6   31 1
  12    6   32 1
  13    7    8 1
  14    7   33 1
  15    7   34 1
  16    8    9 1
  17    8   25 am
  18    9   10 1
  19    9   17 1
  20    9   35 1
  21   10   11 1
  22   10   36 1
  23   10   37 1
  24   11   12 1
  25   11   16 1
  26   11   38 1
  27   12   13 1
  28   12   39 1
  29   12   40 1
  30   13   14 1
  31   13   41 1
  32   13   42 1
  33   14   15 1
  34   14   43 1
  35   14   44 1
  36   15   16 1
  37   15   45 1
  38   15   46 1
  39   16   47 1
  40   16   48 1
  41   17   18 2
  42   17   19 am
  43   19   20 1
  44   19   49 1
  45   20   21 2
  46   20   24 1
  47   21   22 1
  48   22   23 2
  49   22   50 1
  50   23   24 1
  51   23   51 1
  52   25   26 2
  53   25   27 1
  54   27   52 1
  55   27   53 1

#	End of record

