#	Name: ASD07931896
#	Creating user name:	WinNT
#	Creation time:	15. 06. 2019 21:13

#	Modifying user name:	WinNT
#	Modification time:	15. 06. 2019 21:13

#	Program:	/corina/corina34_cracker 3.40 0067  02.08.2006

@<TRIPOS>MOLECULE
ASD07931896
  33   34    0    0    0
SMALL
NO_CHARGES


@<TRIPOS>ATOM
   1 C1            -0.0173     1.4248     0.0099 C.3     
   2 O2             0.0021    -0.0041     0.0020 O.3     
   3 O3             2.0484     1.6242    -1.2441 O.3     
   4 C4             1.4181     1.9544    -0.0010 C.3     
   5 C5             1.4095     3.4931     0.1235 C.3     
   6 C6             2.5486     3.9087    -0.8470 C.3     
   7 C7             2.4090     2.8248    -1.9455 C.3     
   8 C8             3.7200     2.6369    -2.6645 C.ar    
   9 C9             3.9428     3.2708    -3.8725 C.ar    
  10 C10            5.1454     3.0984    -4.5321 C.ar    
  11 C11            6.1253     2.2924    -3.9834 C.ar    
  12 C12            5.9028     1.6593    -2.7749 C.ar    
  13 C13            4.7019     1.8351    -2.1132 C.ar    
  14 C14            7.4359     2.1037    -4.7029 C.3     
  15 F15            8.3412     3.0866    -4.2885 F       
  16 F16            7.9531     0.8383    -4.4056 F       
  17 F17            7.2302     2.2111    -6.0825 F       
  18 C18            2.2058     1.3422     1.1591 C.3     
  19 H19           -0.5445     1.7859    -0.8732 H       
  20 H20           -0.5275     1.7763     0.9067 H       
  21 H21           -0.8759    -0.4094     0.0082 H       
  22 H22            0.4536     3.9034    -0.2020 H       
  23 H23            1.6378     3.8010     1.1439 H       
  24 H24            2.3743     4.9048    -1.2537 H       
  25 H25            3.5214     3.8503    -0.3589 H       
  26 H26            1.6255     3.1003    -2.6514 H       
  27 H27            3.1772     3.9005    -4.3012 H       
  28 H28            5.3192     3.5931    -5.4763 H       
  29 H29            6.6683     1.0293    -2.3463 H       
  30 H30            4.5295     1.3434    -1.1672 H       
  31 H31            2.2108     0.2566     1.0620 H       
  32 H32            3.2303     1.7136     1.1385 H       
  33 H33            1.7373     1.6204     2.1031 H       
@<TRIPOS>BOND
   1    1    2 1
   2    1    4 1
   3    1   19 1
   4    1   20 1
   5    2   21 1
   6    3    4 1
   7    3    7 1
   8    4    5 1
   9    4   18 1
  10    5    6 1
  11    5   22 1
  12    5   23 1
  13    6    7 1
  14    6   24 1
  15    6   25 1
  16    7    8 1
  17    7   26 1
  18    8    9 ar
  19    8   13 ar
  20    9   10 ar
  21    9   27 1
  22   10   11 ar
  23   10   28 1
  24   11   12 ar
  25   11   14 1
  26   12   13 ar
  27   12   29 1
  28   13   30 1
  29   14   15 1
  30   14   16 1
  31   14   17 1
  32   18   31 1
  33   18   32 1
  34   18   33 1

#	End of record

