#	Name: ASD01911481
#	Creating user name:	WinNT
#	Creation time:	15. 06. 2019 19:57

#	Modifying user name:	WinNT
#	Modification time:	15. 06. 2019 19:57

#	Program:	/corina/corina34_cracker 3.40 0067  02.08.2006

@<TRIPOS>MOLECULE
ASD01911481
  26   28    0    0    0
SMALL
NO_CHARGES


@<TRIPOS>ATOM
   1 C1            -0.0188     1.5387     0.0105 C.3     
   2 C2             0.0021    -0.0041     0.0020 C.3     
   3 C3            -0.7080    -0.4031     1.3192 C.3     
   4 C4            -0.2077     0.6715     2.3162 C.3     
   5 C5            -0.1644     1.9682     1.4826 C.3     
   6 N6             1.1886     2.5018     1.2944 N.am    
   7 C7             1.3594     2.1544     0.0006 C.2     
   8 O8             2.2436     2.2822    -0.8196 O.2     
   9 C9             2.0378     3.1649     2.1795 C.ar    
  10 C10            1.6639     3.3155     3.5101 C.ar    
  11 C11            2.5158     3.9751     4.3782 C.ar    
  12 C12            3.7182     4.4636     3.8830 C.ar    
  13 C13            4.0252     4.2777     2.5488 C.ar    
  14 N14            3.1945     3.6401     1.7463 N.ar    
  15 Br15           4.9217     5.3738     5.0227 Br      
  16 H16           -0.7253     1.9790    -0.6931 H       
  17 H17           -0.5464    -0.3880    -0.8582 H       
  18 H18            1.0283    -0.3713    -0.0042 H       
  19 H19           -1.7908    -0.3504     1.2056 H       
  20 H20           -0.4000    -1.3989     1.6378 H       
  21 H21           -0.9053     0.7753     3.1473 H       
  22 H22            0.7878     0.4192     2.6815 H       
  23 H23           -0.9523     2.6872     1.7068 H       
  24 H24            0.7209     2.9233     3.8613 H       
  25 H25            2.2518     4.1074     5.4170 H       
  26 H26            4.9587     4.6556     2.1589 H       
@<TRIPOS>BOND
   1    1    2 1
   2    1    7 1
   3    1    5 1
   4    1   16 1
   5    2    3 1
   6    2   17 1
   7    2   18 1
   8    3    4 1
   9    3   19 1
  10    3   20 1
  11    4    5 1
  12    4   21 1
  13    4   22 1
  14    5    6 1
  15    5   23 1
  16    6    7 am
  17    6    9 1
  18    7    8 2
  19    9   10 ar
  20    9   14 ar
  21   10   11 ar
  22   10   24 1
  23   11   12 ar
  24   11   25 1
  25   12   13 ar
  26   12   15 1
  27   13   14 ar
  28   13   26 1

#	End of record

