#	Name: ASD01180179
#	Creating user name:	WinNT
#	Creation time:	15. 06. 2019 19:06

#	Modifying user name:	WinNT
#	Modification time:	15. 06. 2019 19:06

#	Program:	/corina/corina34_cracker 3.40 0067  02.08.2006

@<TRIPOS>MOLECULE
ASD01180179
  67   69    0    0    0
SMALL
NO_CHARGES


@<TRIPOS>ATOM
   1 C1            -0.3090     1.2188     0.5341 C.ar    
   2 C2            -0.2414    -0.1589     0.5829 C.ar    
   3 C3             0.8165    -0.8242    -0.0333 C.ar    
   4 C4             1.8009    -0.0937    -0.6958 C.ar    
   5 C5             1.7233     1.2836    -0.7384 C.ar    
   6 C6             0.6709     1.9389    -0.1249 C.ar    
   7 C7             0.5916     3.4430    -0.1748 C.3     
   8 F8            -0.1301     3.8346    -1.3075 F       
   9 F9            -0.0521     3.9145     0.9743 F       
  10 F10            1.8835     3.9762    -0.2377 F       
  11 C11            0.8948    -2.3052     0.0163 C.ar    
  12 C12            1.9527    -2.9705    -0.5999 C.ar    
  13 C13            2.0206    -4.3481    -0.5507 C.ar    
  14 C14            1.0406    -5.0683     0.1083 C.ar    
  15 C15           -0.0118    -4.4130     0.7217 C.ar    
  16 C16           -0.0862    -3.0353     0.6841 C.ar    
  17 C17            1.1196    -6.5724     0.1578 C.3     
  18 C18            1.2311    -7.0297     1.6136 C.3     
  19 N19           -0.0878    -7.1448    -0.4428 N.pl3   
  20 C20           -0.0361    -8.3876    -1.0510 C.ar    
  21 N21           -1.1031    -8.8477    -1.6898 N.ar    
  22 C22           -1.0996   -10.0235    -2.2826 C.ar    
  23 C23            0.0404   -10.8280    -2.2543 C.ar    
  24 C24            1.1842   -10.3658    -1.5851 C.ar    
  25 C25            1.1387    -9.1352    -0.9880 C.ar    
  26 C26            0.0429   -12.1458    -2.9179 C.2     
  27 N27           -1.0610   -12.5804    -3.5574 N.am    
  28 O28            1.0410   -12.8397    -2.8879 O.2     
  29 C29           -1.0584   -13.8888    -4.2164 C.3     
  30 C30           -2.4233   -14.1376    -4.8615 C.3     
  31 C31           -2.4207   -15.4835    -5.5394 C.2     
  32 O32           -3.5201   -15.9163    -6.1763 O.3     
  33 O33           -1.4289   -16.1730    -5.5095 O.2     
  34 C34            2.5811    -6.5903     2.1842 C.3     
  35 C35            2.6273    -5.0633     2.2666 C.3     
  36 C36            2.7602    -7.1823     3.5836 C.3     
  37 C37            3.7056    -7.0862     1.2729 C.3     
  38 H38           -1.1310     1.7352     1.0075 H       
  39 H39           -1.0069    -0.7202     1.0981 H       
  40 H40            2.6232    -0.6043    -1.1748 H       
  41 H41            2.4857     1.8508    -1.2516 H       
  42 H42            2.7180    -2.4092    -1.1153 H       
  43 H43            2.8401    -4.8648    -1.0280 H       
  44 H44           -0.7742    -4.9802     1.2350 H       
  45 H45           -0.9084    -2.5247     1.1634 H       
  46 H46            1.9957    -6.9087    -0.3968 H       
  47 H47            0.4269    -6.5822     2.1976 H       
  48 H48            1.1531    -8.1159     1.6602 H       
  49 H49           -0.9235    -6.6532    -0.4143 H       
  50 H50           -1.9860   -10.3682    -2.7943 H       
  51 H51            2.0814   -10.9658    -1.5460 H       
  52 H52            2.0020    -8.7508    -0.4652 H       
  53 H53           -1.8572   -12.0268    -3.5814 H       
  54 H54           -0.2849   -13.9075    -4.9841 H       
  55 H55           -0.8578   -14.6664    -3.4794 H       
  56 H56           -3.1969   -14.1189    -4.0938 H       
  57 H57           -2.6239   -13.3600    -5.5985 H       
  58 H58           -3.4705   -16.7861    -6.5960 H       
  59 H59            1.7249    -4.6984     2.7571 H       
  60 H60            3.5019    -4.7567     2.8402 H       
  61 H61            2.6880    -4.6468     1.2611 H       
  62 H62            2.7273    -8.2702     3.5249 H       
  63 H63            3.7219    -6.8693     3.9901 H       
  64 H64            1.9590    -6.8290     4.2328 H       
  65 H65            3.6474    -6.5742     0.3124 H       
  66 H66            4.6690    -6.8774     1.7381 H       
  67 H67            3.6017    -8.1602     1.1190 H       
@<TRIPOS>BOND
   1    1    2 ar
   2    1    6 ar
   3    1   38 1
   4    2    3 ar
   5    2   39 1
   6    3    4 ar
   7    3   11 1
   8    4    5 ar
   9    4   40 1
  10    5    6 ar
  11    5   41 1
  12    6    7 1
  13    7    8 1
  14    7    9 1
  15    7   10 1
  16   11   12 ar
  17   11   16 ar
  18   12   13 ar
  19   12   42 1
  20   13   14 ar
  21   13   43 1
  22   14   15 ar
  23   14   17 1
  24   15   16 ar
  25   15   44 1
  26   16   45 1
  27   17   18 1
  28   17   19 1
  29   17   46 1
  30   18   34 1
  31   18   47 1
  32   18   48 1
  33   19   20 1
  34   19   49 1
  35   20   21 ar
  36   20   25 ar
  37   21   22 ar
  38   22   23 ar
  39   22   50 1
  40   23   24 ar
  41   23   26 1
  42   24   25 ar
  43   24   51 1
  44   25   52 1
  45   26   27 am
  46   26   28 2
  47   27   29 1
  48   27   53 1
  49   29   30 1
  50   29   54 1
  51   29   55 1
  52   30   31 1
  53   30   56 1
  54   30   57 1
  55   31   32 1
  56   31   33 2
  57   32   58 1
  58   34   35 1
  59   34   36 1
  60   34   37 1
  61   35   59 1
  62   35   60 1
  63   35   61 1
  64   36   62 1
  65   36   63 1
  66   36   64 1
  67   37   65 1
  68   37   66 1
  69   37   67 1

#	End of record

