#	Name: ASD07930428
#	Creating user name:	WinNT
#	Creation time:	15. 06. 2019 21:12

#	Modifying user name:	WinNT
#	Modification time:	15. 06. 2019 21:12

#	Program:	/corina/corina34_cracker 3.40 0067  02.08.2006

@<TRIPOS>MOLECULE
ASD07930428
  44   46    0    0    0
SMALL
NO_CHARGES


@<TRIPOS>ATOM
   1 N1             0.1949     0.8896     0.9074 N.2     
   2 N2            -1.0818    -1.0336     0.5431 N.pl3   
   3 C3            -1.2785    -1.9100    -0.6163 C.3     
   4 C4            -0.2381    -3.0380    -0.5804 C.3     
   5 S5             1.4185    -2.2853    -0.5227 S.o2    
   6 N6             1.2768    -1.1809     0.7170 N.am    
   7 C7             0.1298    -0.3999     0.7283 C.2     
   8 C8             2.3117    -1.0416     1.7445 C.3     
   9 C9            -1.1098    -1.1002    -1.9034 C.3     
  10 C10           -2.6638    -2.5015    -0.5708 C.ar    
  11 C11           -2.9094    -3.7493    -1.1127 C.ar    
  12 N12           -4.1174    -4.2774    -1.0783 N.ar    
  13 C13           -5.1362    -3.6455    -0.5310 C.ar    
  14 C14           -4.9687    -2.3878     0.0344 C.ar    
  15 C15           -3.7047    -1.8035     0.0198 C.ar    
  16 O16            2.3819    -3.2214    -0.0591 O.2     
  17 O17            1.6541    -1.4953    -1.6801 O.2     
  18 N18           -6.0525    -1.7202     0.6140 N.am    
  19 C19           -6.1416    -0.3781     0.5277 C.2     
  20 O20           -5.2391     0.2596     0.0213 O.2     
  21 C21           -7.3371     0.3184     1.0488 C.ar    
  22 N22           -8.3200    -0.3839     1.6010 N.ar    
  23 C23           -9.3993     0.1952     2.0767 C.ar    
  24 C24           -9.5540     1.5749     2.0191 C.ar    
  25 C25           -8.5520     2.3485     1.4506 C.ar    
  26 C26           -7.4209     1.7100     0.9615 C.ar    
  27 F27          -10.6692     2.1574     2.5112 F       
  28 F28           -6.4203     2.4230     0.3998 F       
  29 H29            1.0553     1.3186     1.0358 H       
  30 H30           -1.8036    -0.8965     1.1765 H       
  31 H31           -0.3934    -3.6530     0.3061 H       
  32 H32           -0.3315    -3.6527    -1.4757 H       
  33 H33            3.0442    -0.3006     1.4243 H       
  34 H34            1.8541    -0.7195     2.6798 H       
  35 H35            2.8069    -2.0011     1.8938 H       
  36 H36           -0.1069    -0.6746    -1.9361 H       
  37 H37           -1.2561    -1.7521    -2.7647 H       
  38 H38           -1.8463    -0.2969    -1.9265 H       
  39 H39           -2.1007    -4.2992    -1.5709 H       
  40 H40           -6.1111    -4.1101    -0.5221 H       
  41 H41           -3.5415    -0.8269     0.4510 H       
  42 H42           -6.7399    -2.2231     1.0781 H       
  43 H43          -10.1773    -0.4097     2.5185 H       
  44 H44           -8.6484     3.4226     1.3934 H       
@<TRIPOS>BOND
   1    1    7 2
   2    1   29 1
   3    2    3 1
   4    2    7 1
   5    2   30 1
   6    3    4 1
   7    3    9 1
   8    3   10 1
   9    4    5 1
  10    4   31 1
  11    4   32 1
  12    5    6 am
  13    5   16 2
  14    5   17 2
  15    6    7 1
  16    6    8 1
  17    8   33 1
  18    8   34 1
  19    8   35 1
  20    9   36 1
  21    9   37 1
  22    9   38 1
  23   10   11 ar
  24   10   15 ar
  25   11   12 ar
  26   11   39 1
  27   12   13 ar
  28   13   14 ar
  29   13   40 1
  30   14   15 ar
  31   14   18 1
  32   15   41 1
  33   18   19 am
  34   18   42 1
  35   19   20 2
  36   19   21 1
  37   21   22 ar
  38   21   26 ar
  39   22   23 ar
  40   23   24 ar
  41   23   43 1
  42   24   25 ar
  43   24   27 1
  44   25   26 ar
  45   25   44 1
  46   26   28 1

#	End of record

