#	Name: ASD00170210
#	Creating user name:	WinNT
#	Creation time:	15. 06. 2019 18:31

#	Modifying user name:	WinNT
#	Modification time:	15. 06. 2019 18:31

#	Program:	/corina/corina34_cracker 3.40 0067  02.08.2006

@<TRIPOS>MOLECULE
ASD00170210
  50   53    0    0    0
SMALL
NO_CHARGES


@<TRIPOS>ATOM
   1 C1             0.0017     1.3505    -0.0668 C.2     
   2 C2             0.0224     0.0154     0.2016 C.2     
   3 C3            -1.3116    -0.5539     0.2773 C.2     
   4 C4            -2.3019     0.3746     0.0625 C.2     
   5 S5            -1.6496     1.9219    -0.2212 S.3     
   6 C6             1.2637    -0.7668     0.3938 C.ar    
   7 C7             2.0752    -0.5315     1.5041 C.ar    
   8 C8             3.2312    -1.2646     1.6778 C.ar    
   9 C9             3.5863    -2.2309     0.7538 C.ar    
  10 C10            2.7858    -2.4692    -0.3496 C.ar    
  11 C11            1.6247    -1.7471    -0.5318 C.ar    
  12 N12           -3.6504     0.0909     0.0805 N.pl3   
  13 C13           -1.5732    -1.9651     0.5528 C.2     
  14 C14           -1.6335    -2.4471     1.9501 C.ar    
  15 O15           -1.7416    -2.7442    -0.3679 O.2     
  16 C16           -1.7718    -3.8103     2.2159 C.ar    
  17 C17           -1.8274    -4.2533     3.5212 C.ar    
  18 C18           -1.7466    -3.3495     4.5657 C.ar    
  19 C19           -1.6094    -1.9968     4.3091 C.ar    
  20 C20           -1.5467    -1.5413     3.0084 C.ar    
  21 C21            1.2010     2.1992    -0.2024 C.ar    
  22 C22            2.2667     1.7834    -1.0049 C.ar    
  23 C23            3.3850     2.5796    -1.1285 C.ar    
  24 C24            3.4536     3.7933    -0.4572 C.ar    
  25 C25            2.3970     4.2107     0.3415 C.ar    
  26 C26            1.2722     3.4238     0.4666 C.ar    
  27 O27            4.5584     4.5748    -0.5817 O.3     
  28 C28            4.5632     5.8105     0.1360 C.3     
  29 C29            4.1089    -1.0118     2.8764 C.3     
  30 F30            3.7052    -1.8361     3.9322 F       
  31 F31            5.4394    -1.2930     2.5478 F       
  32 F32            3.9970     0.3283     3.2621 F       
  33 H33            1.7994     0.2231     2.2259 H       
  34 H34            4.4925    -2.8016     0.8939 H       
  35 H35            3.0686    -3.2249    -1.0674 H       
  36 H36            1.0005    -1.9342    -1.3931 H       
  37 H37           -3.9561    -0.7965     0.3253 H       
  38 H38           -4.2938     0.7787    -0.1515 H       
  39 H39           -1.8354    -4.5168     1.4015 H       
  40 H40           -1.9348    -5.3078     3.7282 H       
  41 H41           -1.7910    -3.7013     5.5858 H       
  42 H42           -1.5472    -1.2964     5.1289 H       
  43 H43           -1.4393    -0.4852     2.8094 H       
  44 H44            2.2143     0.8395    -1.5271 H       
  45 H45            4.2093     2.2589    -1.7483 H       
  46 H46            2.4548     5.1553     0.8617 H       
  47 H47            0.4509     3.7492     1.0879 H       
  48 H48            5.5004     6.3351    -0.0502 H       
  49 H49            3.7289     6.4276    -0.1974 H       
  50 H50            4.4642     5.6113     1.2030 H       
@<TRIPOS>BOND
   1    1    2 2
   2    1   21 1
   3    1    5 1
   4    2    3 1
   5    2    6 1
   6    3    4 2
   7    3   13 1
   8    4    5 1
   9    4   12 1
  10    6    7 ar
  11    6   11 ar
  12    7    8 ar
  13    7   33 1
  14    8    9 ar
  15    8   29 1
  16    9   10 ar
  17    9   34 1
  18   10   11 ar
  19   10   35 1
  20   11   36 1
  21   12   37 1
  22   12   38 1
  23   13   14 1
  24   13   15 2
  25   14   16 ar
  26   14   20 ar
  27   16   17 ar
  28   16   39 1
  29   17   18 ar
  30   17   40 1
  31   18   19 ar
  32   18   41 1
  33   19   20 ar
  34   19   42 1
  35   20   43 1
  36   21   22 ar
  37   21   26 ar
  38   22   23 ar
  39   22   44 1
  40   23   24 ar
  41   23   45 1
  42   24   25 ar
  43   24   27 1
  44   25   26 ar
  45   25   46 1
  46   26   47 1
  47   27   28 1
  48   28   48 1
  49   28   49 1
  50   28   50 1
  51   29   30 1
  52   29   31 1
  53   29   32 1

#	End of record

