#	Name: ASD03091862
#	Creating user name:	WinNT
#	Creation time:	15. 06. 2019 20:31

#	Modifying user name:	WinNT
#	Modification time:	15. 06. 2019 20:31

#	Program:	/corina/corina34_cracker 3.40 0067  02.08.2006

@<TRIPOS>MOLECULE
ASD03091862
  28   29    0    0    0
SMALL
NO_CHARGES


@<TRIPOS>ATOM
   1 O1             0.0013    -0.0033     0.0375 O.2     
   2 C2            -0.0147     1.2124     0.0180 C.2     
   3 N3             1.1435     1.9014     0.0014 N.am    
   4 C4             2.3656     1.2205     0.0918 C.ar    
   5 C5             2.4571    -0.1010    -0.3220 C.ar    
   6 C6             3.6622    -0.7706    -0.2321 C.ar    
   7 C7             4.7792    -0.1251     0.2710 C.ar    
   8 F8             5.9562    -0.7825     0.3576 F       
   9 C9             4.6917     1.1933     0.6848 C.ar    
  10 C10            3.4890     1.8697     0.5910 C.ar    
  11 F11            3.4047     3.1579     0.9890 F       
  12 N12           -1.1907     1.8708     0.0075 N.am    
  13 C13           -2.5220     1.2470     0.0175 C.3     
  14 C14           -3.5621     2.3863    -0.0270 C.3     
  15 C15           -2.7576     3.5678    -0.6305 C.3     
  16 C16           -1.3551     3.3357    -0.0095 C.3     
  17 H17            1.1315     2.8685    -0.0733 H       
  18 H18            1.5865    -0.6059    -0.7138 H       
  19 H19            3.7330    -1.7990    -0.5542 H       
  20 H20            5.5640     1.6949     1.0772 H       
  21 H21           -2.6374     0.6054    -0.8560 H       
  22 H22           -2.6508     0.6629     0.9287 H       
  23 H23           -1.3160     3.7337     1.0045 H       
  24 H24           -0.5856     3.7967    -0.6288 H       
  25 H25           -4.3987     2.1196    -0.6728 H       
  26 H26           -3.9106     2.6298     0.9767 H       
  27 H27           -2.7229     3.5019    -1.7179 H       
  28 H28           -3.1706     4.5249    -0.3117 H       
@<TRIPOS>BOND
   1    1    2 2
   2    2    3 am
   3    2   12 am
   4    3    4 1
   5    3   17 1
   6    4    5 ar
   7    4   10 ar
   8    5    6 ar
   9    5   18 1
  10    6    7 ar
  11    6   19 1
  12    7    8 1
  13    7    9 ar
  14    9   10 ar
  15    9   20 1
  16   10   11 1
  17   12   13 1
  18   12   16 1
  19   13   14 1
  20   13   21 1
  21   13   22 1
  22   14   15 1
  23   14   25 1
  24   14   26 1
  25   15   16 1
  26   15   27 1
  27   15   28 1
  28   16   23 1
  29   16   24 1

#	End of record

