#	Name: ASD01901298
#	Creating user name:	WinNT
#	Creation time:	15. 06. 2019 19:53

#	Modifying user name:	WinNT
#	Modification time:	15. 06. 2019 19:53

#	Program:	/corina/corina34_cracker 3.40 0067  02.08.2006

@<TRIPOS>MOLECULE
ASD01901298
  42   45    0    0    0
SMALL
NO_CHARGES


@<TRIPOS>ATOM
   1 C1            -0.1919     1.3857    -0.0476 C.ar    
   2 C2            -0.0809    -0.0144    -0.0283 C.ar    
   3 C3             1.2043    -0.6075     0.0455 C.ar    
   4 C4             2.3411     0.2179     0.0980 C.ar    
   5 C5             2.1948     1.5712     0.0774 C.ar    
   6 C6             0.9313     2.1537     0.0048 C.ar    
   7 N7            -1.1715    -0.7912    -0.0784 N.ar    
   8 C8            -1.0428    -2.1028    -0.0587 C.ar    
   9 C9             0.2413    -2.6951     0.0150 C.ar    
  10 N10            1.3225    -1.9400     0.0648 N.ar    
  11 N11           -2.1697    -2.9060    -0.1099 N.3     
  12 C12            0.3718    -4.1707     0.0363 C.ar    
  13 C13            1.3613    -4.7971    -0.7209 C.ar    
  14 C14            1.4782    -6.1717    -0.6966 C.ar    
  15 C15            0.6159    -6.9285     0.0766 C.ar    
  16 C16           -0.3677    -6.3129     0.8298 C.ar    
  17 C17           -0.4908    -4.9386     0.8182 C.ar    
  18 C18           -4.4536    -3.2856     0.6901 C.3     
  19 C19           -4.9002    -3.6036    -0.7396 C.3     
  20 C20           -3.7154    -4.1803    -1.5196 C.3     
  21 C21           -2.5604    -3.1765    -1.4993 C.3     
  22 C22           -3.2772    -2.3078     0.6463 C.3     
  23 O23           -5.9614    -4.5600    -0.7069 O.3     
  24 H24           -1.1645     1.8514    -0.1081 H       
  25 H25            3.3268    -0.2199     0.1549 H       
  26 H26            3.0704     2.2020     0.1179 H       
  27 H27            0.8414     3.2299    -0.0106 H       
  28 H28            2.0346    -4.2074    -1.3254 H       
  29 H29            2.2441    -6.6579    -1.2825 H       
  30 H30            0.7108    -8.0042     0.0919 H       
  31 H31           -1.0382    -6.9089     1.4312 H       
  32 H32           -1.2590    -4.4591     1.4066 H       
  33 H33           -5.2811    -2.8350     1.2381 H       
  34 H34           -4.1445    -4.2048     1.1877 H       
  35 H35           -5.2460    -2.6908    -1.2247 H       
  36 H36           -3.3947    -5.1136    -1.0567 H       
  37 H37           -4.0156    -4.3690    -2.5504 H       
  38 H38           -2.8775    -2.2483    -1.9747 H       
  39 H39           -1.7102    -3.5902    -2.0417 H       
  40 H40           -2.9476    -2.0904     1.6623 H       
  41 H41           -3.5909    -1.3836     0.1609 H       
  42 H42           -6.2942    -4.8082    -1.5802 H       
@<TRIPOS>BOND
   1    1    2 ar
   2    1    6 ar
   3    1   24 1
   4    2    3 ar
   5    2    7 ar
   6    3    4 ar
   7    3   10 ar
   8    4    5 ar
   9    4   25 1
  10    5    6 ar
  11    5   26 1
  12    6   27 1
  13    7    8 ar
  14    8    9 ar
  15    8   11 1
  16    9   10 ar
  17    9   12 1
  18   11   22 1
  19   11   21 1
  20   12   13 ar
  21   12   17 ar
  22   13   14 ar
  23   13   28 1
  24   14   15 ar
  25   14   29 1
  26   15   16 ar
  27   15   30 1
  28   16   17 ar
  29   16   31 1
  30   17   32 1
  31   18   19 1
  32   18   22 1
  33   18   33 1
  34   18   34 1
  35   19   20 1
  36   19   23 1
  37   19   35 1
  38   20   21 1
  39   20   36 1
  40   20   37 1
  41   21   38 1
  42   21   39 1
  43   22   40 1
  44   22   41 1
  45   23   42 1

#	End of record

