#	Name: ASD01913098
#	Creating user name:	WinNT
#	Creation time:	15. 06. 2019 20:00

#	Modifying user name:	WinNT
#	Modification time:	15. 06. 2019 20:00

#	Program:	/corina/corina34_cracker 3.40 0067  02.08.2006

@<TRIPOS>MOLECULE
ASD01913098
  39   40    0    0    0
SMALL
NO_CHARGES


@<TRIPOS>ATOM
   1 C1             0.1296     1.1640     0.2273 C.ar    
   2 C2            -0.2721     0.4225    -0.8776 C.ar    
   3 C3             0.4745     0.4546    -2.0496 C.ar    
   4 C4             1.6160     1.2214    -2.1202 C.ar    
   5 C5             2.0233     1.9684    -1.0116 C.ar    
   6 C6             1.2697     1.9337     0.1647 C.ar    
   7 N7             3.6376     3.5109    -0.0125 N.am    
   8 C8             3.2464     2.7912    -1.0828 C.2     
   9 O9             3.9012     2.8199    -2.1070 O.2     
  10 O10           -1.3961    -0.3352    -0.8117 O.3     
  11 C11            4.8473     4.2168    -0.0472 C.ar    
  12 C12            4.8718     5.5365    -0.4829 C.ar    
  13 C13            6.0683     6.2301    -0.5157 C.ar    
  14 C14            7.2388     5.6122    -0.1159 C.ar    
  15 C15            7.2187     4.2994     0.3177 C.ar    
  16 C16            6.0253     3.6010     0.3593 C.ar    
  17 F17            6.0066     2.3183     0.7831 F       
  18 F18            3.7286     6.1410    -0.8742 F       
  19 C19           -4.7014    -3.4369    -2.7117 C.3     
  20 C20           -3.4165    -2.6490    -2.9748 C.3     
  21 C21           -3.0362    -1.8600    -1.7203 C.3     
  22 C22           -1.7513    -1.0721    -1.9834 C.3     
  23 H23           -0.4556     1.1400     1.1347 H       
  24 H24            0.1590    -0.1230    -2.9059 H       
  25 H25            2.1959     1.2452    -3.0310 H       
  26 H26            1.5810     2.5099     1.0235 H       
  27 H27            3.0816     3.5402     0.7818 H       
  28 H28            6.0882     7.2554    -0.8544 H       
  29 H29            8.1714     6.1563    -0.1427 H       
  30 H30            8.1352     3.8200     0.6285 H       
  31 H31           -4.5413    -4.1268    -1.8832 H       
  32 H32           -5.5059    -2.7462    -2.4591 H       
  33 H33           -4.9723    -3.9990    -3.6055 H       
  34 H34           -2.6120    -3.3397    -3.2274 H       
  35 H35           -3.5766    -1.9591    -3.8033 H       
  36 H36           -3.8407    -1.1693    -1.4677 H       
  37 H37           -2.8761    -2.5500    -0.8918 H       
  38 H38           -1.9113    -0.3822    -2.8119 H       
  39 H39           -0.9468    -1.7629    -2.2360 H       
@<TRIPOS>BOND
   1    1    2 ar
   2    1    6 ar
   3    1   23 1
   4    2    3 ar
   5    2   10 1
   6    3    4 ar
   7    3   24 1
   8    4    5 ar
   9    4   25 1
  10    5    6 ar
  11    5    8 1
  12    6   26 1
  13    7    8 am
  14    7   11 1
  15    7   27 1
  16    8    9 2
  17   10   22 1
  18   11   12 ar
  19   11   16 ar
  20   12   13 ar
  21   12   18 1
  22   13   14 ar
  23   13   28 1
  24   14   15 ar
  25   14   29 1
  26   15   16 ar
  27   15   30 1
  28   16   17 1
  29   19   20 1
  30   19   31 1
  31   19   32 1
  32   19   33 1
  33   20   21 1
  34   20   34 1
  35   20   35 1
  36   21   22 1
  37   21   36 1
  38   21   37 1
  39   22   38 1
  40   22   39 1

#	End of record

