#	Name: ASD01230242
#	Creating user name:	WinNT
#	Creation time:	15. 06. 2019 19:12

#	Modifying user name:	WinNT
#	Modification time:	15. 06. 2019 19:12

#	Program:	/corina/corina34_cracker 3.40 0067  02.08.2006

@<TRIPOS>MOLECULE
ASD01230242
  52   54    0    0    0
SMALL
NO_CHARGES


@<TRIPOS>ATOM
   1 S1            -0.0204     1.6504     0.0111 S.o2    
   2 N2             0.0021    -0.0041     0.0020 N.am    
   3 C3             1.0230    -0.6873    -0.4557 C.2     
   4 N4             2.1689    -0.1518    -0.9712 N.pl3   
   5 C5             2.3935     1.2854    -1.1472 C.3     
   6 C6             1.7501     2.0749    -0.0035 C.3     
   7 C7             0.8952    -2.1590    -0.3951 C.2     
   8 C8             1.9454    -2.9419    -0.8226 C.2     
   9 C9             3.1046    -2.3189    -1.3055 C.2     
  10 C10            3.1912    -0.9791    -1.3650 C.2     
  11 C11           -0.3451    -2.7835     0.1187 C.ar    
  12 C12           -0.3146    -3.5356     1.2936 C.ar    
  13 C13           -1.4717    -4.1153     1.7693 C.ar    
  14 C14           -2.6661    -3.9517     1.0806 C.ar    
  15 C15           -2.7004    -3.2040    -0.0888 C.ar    
  16 C16           -1.5484    -2.6165    -0.5675 C.ar    
  17 O17           -3.8044    -4.5252     1.5520 O.3     
  18 Si18          -4.6496    -3.5780     2.5759 Si      
  19 C19           -3.5923    -3.1607     4.0519 C.3     
  20 C20           -5.1455    -2.0083     1.7035 C.3     
  21 C21           -6.1766    -4.4829     3.1417 C.3     
  22 C22           -5.7694    -5.7721     3.8581 C.3     
  23 C23           -6.9696    -3.5943     4.1022 C.3     
  24 C24           -7.0450    -4.8256     1.9295 C.3     
  25 O25           -0.6346     2.0065    -1.2198 O.2     
  26 O26           -0.6110     1.9932     1.2573 O.2     
  27 H27            3.4654     1.4826    -1.1617 H       
  28 H28            1.9572     1.6041    -2.0939 H       
  29 H29            1.8743     3.1442    -0.1745 H       
  30 H30            2.2074     1.7939     0.9452 H       
  31 H31            1.8766    -4.0190    -0.7858 H       
  32 H32            3.9378    -2.9227    -1.6334 H       
  33 H33            4.1024    -0.5350    -1.7377 H       
  34 H34            0.6143    -3.6639     1.8295 H       
  35 H35           -1.4488    -4.6976     2.6786 H       
  36 H36           -3.6313    -3.0789    -0.6219 H       
  37 H37           -1.5766    -2.0316    -1.4750 H       
  38 H38           -2.6989    -2.6312     3.7208 H       
  39 H39           -4.1572    -2.5276     4.7362 H       
  40 H40           -3.3022    -4.0791     4.5623 H       
  41 H41           -5.7641    -2.2524     0.8399 H       
  42 H42           -5.7104    -1.3753     2.3878 H       
  43 H43           -4.2521    -1.4788     1.3725 H       
  44 H44           -5.1508    -5.5279     4.7217 H       
  45 H45           -6.6628    -6.3015     4.1892 H       
  46 H46           -5.2045    -6.4051     3.1739 H       
  47 H47           -7.2597    -2.6760     3.5918 H       
  48 H48           -7.8630    -4.1238     4.4333 H       
  49 H49           -6.3509    -3.3502     4.9658 H       
  50 H50           -6.4801    -5.4587     1.2452 H       
  51 H51           -7.9384    -5.3551     2.2606 H       
  52 H52           -7.3351    -3.9073     1.4191 H       
@<TRIPOS>BOND
   1    1    2 am
   2    1    6 1
   3    1   25 2
   4    1   26 2
   5    2    3 2
   6    3    4 1
   7    3    7 1
   8    4    5 1
   9    4   10 1
  10    5    6 1
  11    5   27 1
  12    5   28 1
  13    6   29 1
  14    6   30 1
  15    7    8 2
  16    7   11 1
  17    8    9 1
  18    8   31 1
  19    9   10 2
  20    9   32 1
  21   10   33 1
  22   11   12 ar
  23   11   16 ar
  24   12   13 ar
  25   12   34 1
  26   13   14 ar
  27   13   35 1
  28   14   15 ar
  29   14   17 1
  30   15   16 ar
  31   15   36 1
  32   16   37 1
  33   17   18 1
  34   18   19 1
  35   18   20 1
  36   18   21 1
  37   19   38 1
  38   19   39 1
  39   19   40 1
  40   20   41 1
  41   20   42 1
  42   20   43 1
  43   21   22 1
  44   21   24 1
  45   21   23 1
  46   22   44 1
  47   22   45 1
  48   22   46 1
  49   23   47 1
  50   23   48 1
  51   23   49 1
  52   24   50 1
  53   24   51 1
  54   24   52 1

#	End of record

