#	Name: ASD07300993
#	Creating user name:	WinNT
#	Creation time:	15. 06. 2019 21:10

#	Modifying user name:	WinNT
#	Modification time:	15. 06. 2019 21:10

#	Program:	/corina/corina34_cracker 3.40 0067  02.08.2006

@<TRIPOS>MOLECULE
ASD07300993
  23   24    0    0    0
SMALL
NO_CHARGES


@<TRIPOS>ATOM
   1 O1             0.0135     1.3778    -0.0249 O.3     
   2 C2            -0.0252     0.0380    -0.0772 C.2     
   3 C3             1.2810    -0.4290    -0.0263 C.2     
   4 C4             2.1200     0.7705     0.0627 C.2     
   5 C5             1.2789     1.8172     0.0579 C.2     
   6 C6            -1.2411    -0.7925    -0.1713 C.ar    
   7 C7            -2.3090    -0.5751     0.7030 C.ar    
   8 C8            -3.4424    -1.3553     0.6092 C.ar    
   9 C9            -3.5235    -2.3514    -0.3479 C.ar    
  10 C10           -2.4696    -2.5727    -1.2169 C.ar    
  11 C11           -1.3324    -1.7962    -1.1388 C.ar    
  12 B12            1.7587    -1.9243    -0.0566 Du      
  13 O13            0.8089    -2.9752     0.0426 O.3     
  14 O14            3.1405    -2.2257    -0.1833 O.3     
  15 H15            3.1979     0.8051     0.1204 H       
  16 H16            1.5754     2.8542     0.1124 H       
  17 H17           -2.2469     0.2018     1.4507 H       
  18 H18           -4.2685    -1.1886     1.2846 H       
  19 H19           -4.4135    -2.9593    -0.4167 H       
  20 H20           -2.5396    -3.3522    -1.9612 H       
  21 H21           -0.5125    -1.9668    -1.8208 H       
  22 H22            1.1974    -3.8603     0.0148 H       
  23 H23            3.3373    -3.1724    -0.1926 H       
@<TRIPOS>BOND
   1    1    2 1
   2    1    5 1
   3    2    3 2
   4    2    6 1
   5    3    4 1
   6    3   12 1
   7    4    5 2
   8    4   15 1
   9    5   16 1
  10    6    7 ar
  11    6   11 ar
  12    7    8 ar
  13    7   17 1
  14    8    9 ar
  15    8   18 1
  16    9   10 ar
  17    9   19 1
  18   10   11 ar
  19   10   20 1
  20   11   21 1
  21   12   13 1
  22   12   14 1
  23   13   22 1
  24   14   23 1

#	End of record

