#	Name: ASD03090042
#	Creating user name:	WinNT
#	Creation time:	15. 06. 2019 20:28

#	Modifying user name:	WinNT
#	Modification time:	15. 06. 2019 20:28

#	Program:	/corina/corina34_cracker 3.40 0067  02.08.2006

@<TRIPOS>MOLECULE
ASD03090042
  37   39    0    0    0
SMALL
NO_CHARGES


@<TRIPOS>ATOM
   1 N1            -0.0144     1.3321    -0.4378 N.am    
   2 C2            -0.0068     0.1173     0.1459 C.2     
   3 O3             0.9950    -0.2805     0.7084 O.2     
   4 N4            -1.1096    -0.6564     0.1060 N.am    
   5 O5            -1.7767    -3.7750     1.3485 O.3     
   6 N6            -2.0882    -2.7702     0.7525 N.2     
   7 C7            -1.1016    -1.9136     0.7101 C.2     
   8 C8            -0.0198    -2.5202     1.4022 C.2     
   9 C9            -0.5123    -3.7181     1.7914 C.2     
  10 C10            0.2175    -4.7816     2.5709 C.3     
  11 C11            1.0941     2.1755    -0.3119 C.ar    
  12 C12            0.9161     3.5636    -0.2375 C.ar    
  13 C13            2.0275     4.3969    -0.1120 C.ar    
  14 C14            3.2977     3.8490    -0.0618 C.ar    
  15 C15            3.4679     2.4731    -0.1364 C.ar    
  16 C16            2.3718     1.6402    -0.2545 C.ar    
  17 S17           -0.8204     5.8614    -0.3502 S.3     
  18 C18           -0.4425     4.1416    -0.2922 C.2     
  19 N19           -1.5535     3.4615    -0.3062 N.2     
  20 C20           -2.6725     4.1476    -0.3576 C.2     
  21 C21           -2.5400     5.4773    -0.3900 C.2     
  22 O22            4.3818     4.6607     0.0605 O.3     
  23 C23            5.6630     4.0294     0.1063 C.3     
  24 H24           -0.7872     1.6199    -0.9486 H       
  25 H25           -1.9088    -0.3390    -0.3427 H       
  26 H26            0.9672    -2.1181     1.5771 H       
  27 H27           -0.4440    -5.6329     2.7311 H       
  28 H28            1.0956    -5.1040     2.0113 H       
  29 H29            0.5288    -4.3769     3.5339 H       
  30 H30            1.8973     5.4674    -0.0546 H       
  31 H31            4.4614     2.0516    -0.0973 H       
  32 H32            2.5108     0.5705    -0.3072 H       
  33 H33           -3.6396     3.6671    -0.3732 H       
  34 H34           -3.3477     6.1930    -0.4331 H       
  35 H35            5.7049     3.3540     0.9608 H       
  36 H36            5.8225     3.4640    -0.8118 H       
  37 H37            6.4388     4.7886     0.2049 H       
@<TRIPOS>BOND
   1    1    2 am
   2    1   11 1
   3    1   24 1
   4    2    3 2
   5    2    4 am
   6    4    7 1
   7    4   25 1
   8    5    6 1
   9    5    9 1
  10    6    7 2
  11    7    8 1
  12    8    9 2
  13    8   26 1
  14    9   10 1
  15   10   27 1
  16   10   28 1
  17   10   29 1
  18   11   12 ar
  19   11   16 ar
  20   12   13 ar
  21   12   18 1
  22   13   14 ar
  23   13   30 1
  24   14   15 ar
  25   14   22 1
  26   15   16 ar
  27   15   31 1
  28   16   32 1
  29   17   18 1
  30   17   21 1
  31   18   19 2
  32   19   20 1
  33   20   21 2
  34   20   33 1
  35   21   34 1
  36   22   23 1
  37   23   35 1
  38   23   36 1
  39   23   37 1

#	End of record

