#	Name: ASD02038565
#	Creating user name:	WinNT
#	Creation time:	15. 06. 2019 20:17

#	Modifying user name:	WinNT
#	Modification time:	15. 06. 2019 20:17

#	Program:	/corina/corina34_cracker 3.40 0067  02.08.2006

@<TRIPOS>MOLECULE
ASD02038565
  59   62    0    0    0
SMALL
NO_CHARGES


@<TRIPOS>ATOM
   1 C1            -0.0801     1.6107    -0.2857 C.3     
   2 N2            -0.0726     0.1427    -0.2184 N.3     
   3 C3            -1.4409    -0.3887    -0.1618 C.3     
   4 C4             0.6683    -0.4298    -1.3510 C.3     
   5 C5             2.1089     0.0866    -1.3282 C.3     
   6 N6             2.1014     1.5547    -1.3955 N.3     
   7 C7             3.4047     2.0608    -1.4494 C.ar    
   8 C8             3.6153     3.4318    -1.5174 C.ar    
   9 C9             4.9020     3.9306    -1.5700 C.ar    
  10 C10            5.9840     3.0625    -1.5555 C.ar    
  11 C11            5.7744     1.6928    -1.4880 C.ar    
  12 C12            4.4885     1.1927    -1.4291 C.ar    
  13 C13            1.3605     2.1272    -0.2628 C.3     
  14 C14           -2.0134    -0.1752     1.2409 C.3     
  15 C15           -3.4785    -0.6153     1.2662 C.3     
  16 O16           -4.0460    -0.3086     2.5414 O.3     
  17 C17           -5.3517    -0.6377     2.7313 C.ar    
  18 C18           -5.9653    -0.3681     3.9456 C.ar    
  19 C19           -7.2915    -0.7025     4.1385 C.ar    
  20 C20           -8.0098    -1.3074     3.1178 C.ar    
  21 C21           -7.3964    -1.5762     1.9032 C.ar    
  22 C22           -6.0714    -1.2379     1.7088 C.ar    
  23 O23           -9.3152    -1.6374     3.3080 O.3     
  24 O24           -1.2673    -0.9487     2.1827 O.3     
  25 O25            7.2506     3.5544    -1.6078 O.3     
  26 C26            7.7038     4.2645    -0.5414 C.ar    
  27 C27            6.9315     4.3621     0.6072 C.ar    
  28 C28            8.9419     4.8883    -0.5977 C.ar    
  29 C29            9.4007     5.6097     0.4873 C.ar    
  30 C30            8.6265     5.7105     1.6297 C.ar    
  31 C31            7.3940     5.0844     1.6900 C.ar    
  32 Cl32           9.2057     6.6172     2.9921 Cl      
  33 H33           -0.5663     1.9300    -1.2075 H       
  34 H34           -0.6236     2.0112     0.5700 H       
  35 H35           -2.0628     0.1307    -0.8910 H       
  36 H36           -1.4265    -1.4544    -0.3900 H       
  37 H37            0.6704    -1.5169    -1.2720 H       
  38 H38            0.1906    -0.1337    -2.2850 H       
  39 H39            2.5951    -0.2326    -0.4063 H       
  40 H40            2.6524    -0.3139    -2.1839 H       
  41 H41            2.7731     4.1077    -1.5294 H       
  42 H42            5.0659     4.9968    -1.6229 H       
  43 H43            6.6172     1.0175    -1.4774 H       
  44 H44            4.3255     0.1264    -1.3762 H       
  45 H45            1.3584     3.2143    -0.3419 H       
  46 H46            1.8382     1.8311     0.6711 H       
  47 H47           -1.9466     0.8805     1.5038 H       
  48 H48           -4.0296    -0.0887     0.4871 H       
  49 H49           -3.5383    -1.6894     1.0908 H       
  50 H50           -5.4060     0.1029     4.7404 H       
  51 H51           -7.7691    -0.4932     5.0843 H       
  52 H52           -7.9557    -2.0472     1.1084 H       
  53 H53           -5.5938    -1.4472     0.7630 H       
  54 H54           -9.9371    -0.9383     3.0641 H       
  55 H55           -1.2825    -1.9001     2.0101 H       
  56 H56            5.9693     3.8738     0.6545 H       
  57 H57            9.5467     4.8096    -1.4890 H       
  58 H58           10.3646     6.0951     0.4441 H       
  59 H59            6.7912     5.1643     2.5826 H       
@<TRIPOS>BOND
   1    1    2 1
   2    1   13 1
   3    1   33 1
   4    1   34 1
   5    2    3 1
   6    2    4 1
   7    3   14 1
   8    3   35 1
   9    3   36 1
  10    4    5 1
  11    4   37 1
  12    4   38 1
  13    5    6 1
  14    5   39 1
  15    5   40 1
  16    6    7 1
  17    6   13 1
  18    7    8 ar
  19    7   12 ar
  20    8    9 ar
  21    8   41 1
  22    9   10 ar
  23    9   42 1
  24   10   11 ar
  25   10   25 1
  26   11   12 ar
  27   11   43 1
  28   12   44 1
  29   13   45 1
  30   13   46 1
  31   14   15 1
  32   14   24 1
  33   14   47 1
  34   15   16 1
  35   15   48 1
  36   15   49 1
  37   16   17 1
  38   17   18 ar
  39   17   22 ar
  40   18   19 ar
  41   18   50 1
  42   19   20 ar
  43   19   51 1
  44   20   21 ar
  45   20   23 1
  46   21   22 ar
  47   21   52 1
  48   22   53 1
  49   23   54 1
  50   24   55 1
  51   25   26 1
  52   26   27 ar
  53   26   28 ar
  54   27   31 ar
  55   27   56 1
  56   28   29 ar
  57   28   57 1
  58   29   30 ar
  59   29   58 1
  60   30   31 ar
  61   30   32 1
  62   31   59 1

#	End of record

