#	Name: ASD00842004
#	Creating user name:	WinNT
#	Creation time:	15. 06. 2019 18:43

#	Modifying user name:	WinNT
#	Modification time:	15. 06. 2019 18:43

#	Program:	/corina/corina34_cracker 3.40 0067  02.08.2006

@<TRIPOS>MOLECULE
ASD00842004
  95  100    0    0    0
SMALL
NO_CHARGES


@<TRIPOS>ATOM
   1 C1             0.9682     1.5463    -0.3995 C.ar    
   2 C2             1.2833     0.2171    -0.6404 C.ar    
   3 C3             1.2317    -0.7044     0.3956 C.ar    
   4 C4             0.8670    -0.2964     1.6638 C.ar    
   5 C5             0.5529     1.0292     1.9013 C.ar    
   6 C6             0.6040     1.9494     0.8709 C.ar    
   7 C7             1.5729    -2.1494     0.1373 C.3     
   8 C8             1.3230    -2.9833     1.3758 C.2     
   9 C9             0.7628    -2.6874    -1.0439 C.3     
  10 C10           -0.7060    -2.4694    -0.7866 C.2     
  11 N11           -1.6207    -2.9554    -1.6489 N.am    
  12 O12           -1.0650    -1.8565     0.1965 O.2     
  13 C13           -3.0483    -2.6552    -1.4739 C.3     
  14 C14           -3.8301    -3.9725    -1.4526 C.3     
  15 C15           -3.5065    -4.7735    -2.7158 C.3     
  16 C16           -2.0116    -5.0996    -2.7462 C.3     
  17 C17           -1.2086    -3.7906    -2.7853 C.3     
  18 N18           -4.2799    -6.0225    -2.7148 N.3     
  19 C19           -4.0855    -6.7633    -3.9690 C.3     
  20 C20           -4.8422    -8.0917    -3.8962 C.3     
  21 N21           -6.2683    -7.8278    -3.6594 N.3     
  22 C22           -6.4627    -7.0870    -2.4052 C.3     
  23 C23           -5.7061    -5.7586    -2.4780 C.3     
  24 C24           -7.0417    -9.0767    -3.6584 C.3     
  25 O25            0.2582    -3.1415     1.9346 O.2     
  26 N26            2.5014    -3.5157     1.7396 N.am    
  27 C27            3.0548    -2.3067    -0.1172 C.ar    
  28 C28            3.5372    -3.1411     0.8883 C.ar    
  29 C29            3.8916    -1.8047    -1.0814 C.ar    
  30 C30            5.2523    -2.1314    -1.0609 C.ar    
  31 C31            5.7443    -2.9697    -0.0532 C.ar    
  32 C32            4.8929    -3.4688     0.9092 C.ar    
  33 F33            7.0562    -3.2911    -0.0246 F       
  34 C34            2.4539    -6.1604     2.4999 C.ar    
  35 C35            3.5268    -6.9002     2.0379 C.ar    
  36 C36            1.1896    -6.7190     2.5343 C.ar    
  37 C37            0.9954    -8.0182     2.1070 C.ar    
  38 C38            2.0702    -8.7626     1.6430 C.ar    
  39 C39            3.3377    -8.1997     1.6091 C.ar    
  40 O40            1.8818   -10.0411     1.2225 O.3     
  41 H41            4.5134    -6.4616     2.0120 H       
  42 C42            3.0337   -10.7476     0.7578 C.3     
  43 C43           -8.4631    -8.7961    -3.1665 C.3     
  44 C44           -9.2686   -10.0968    -3.1655 C.3     
  45 S45            2.6996    -4.5054     3.0524 S.o2    
  46 O46            4.0667    -4.4062     3.4270 O.2     
  47 O47            1.6278    -4.2152     3.9392 O.2     
  48 C48            6.1342    -1.6130    -2.0630 C.1     
  49 N49            6.8338    -1.2018    -2.8579 N.1     
  50 O50            1.6414    -0.1820    -1.8891 O.3     
  51 C51            2.0975     0.1953    -4.2323 C.3     
  52 C52            1.5641     0.7947    -2.9295 C.3     
  53 H53            1.0120     2.2664    -1.2033 H       
  54 H54            0.8267    -1.0133     2.4705 H       
  55 H55            0.2673     1.3462     2.8934 H       
  56 H56            0.3583     2.9842     1.0589 H       
  57 H57            1.0541    -2.1623    -1.9536 H       
  58 H58            0.9566    -3.7535    -1.1619 H       
  59 H59           -3.1977    -2.1264    -0.5325 H       
  60 H60           -3.3959    -2.0373    -2.3017 H       
  61 H61           -3.5461    -4.5500    -0.5729 H       
  62 H62           -4.8988    -3.7607    -1.4199 H       
  63 H63           -3.7679    -4.1855    -3.5956 H       
  64 H64           -1.7447    -5.6665    -1.8542 H       
  65 H65           -1.7860    -5.6901    -3.6341 H       
  66 H66           -1.4073    -3.2678    -3.7209 H       
  67 H67           -0.1442    -4.0123    -2.7072 H       
  68 H68           -4.4661    -6.1732    -4.8027 H       
  69 H69           -3.0231    -6.9576    -4.1156 H       
  70 H70           -4.7232    -8.6300    -4.8365 H       
  71 H71           -4.4432    -8.6932    -3.0795 H       
  72 H72           -7.5252    -6.8927    -2.2586 H       
  73 H73           -6.0821    -7.6771    -1.5716 H       
  74 H74           -5.8251    -5.2203    -1.5377 H       
  75 H75           -6.1051    -5.1571    -3.2947 H       
  76 H76           -7.0805    -9.4809    -4.6700 H       
  77 H77           -6.5643    -9.7993    -2.9965 H       
  78 H78            3.5014    -1.1592    -1.8543 H       
  79 H79            5.2777    -4.1151     1.6842 H       
  80 H80            0.3532    -6.1392     2.8959 H       
  81 H81            0.0077    -8.4542     2.1344 H       
  82 H82            4.1761    -8.7773     1.2486 H       
  83 H83            3.4648   -10.2200    -0.0931 H       
  84 H84            3.7703   -10.8084     1.5588 H       
  85 H85            2.7445   -11.7534     0.4530 H       
  86 H86           -8.4243    -8.3919    -2.1550 H       
  87 H87           -8.9406    -8.0735    -3.8284 H       
  88 H88           -9.3074   -10.5010    -4.1770 H       
  89 H89           -8.7911   -10.8193    -2.5036 H       
  90 H90          -10.2812    -9.8969    -2.8151 H       
  91 H91            3.1053    -0.1869    -4.0705 H       
  92 H92            1.4468    -0.6191    -4.5507 H       
  93 H93            2.1203     0.9651    -5.0037 H       
  94 H94            0.5262     1.0976    -3.0670 H       
  95 H95            2.1632     1.6636    -2.6573 H       
@<TRIPOS>BOND
   1    1    2 ar
   2    1    6 ar
   3    1   53 1
   4    2    3 ar
   5    2   50 1
   6    3    4 ar
   7    3    7 1
   8    4    5 ar
   9    4   54 1
  10    5    6 ar
  11    5   55 1
  12    6   56 1
  13    7    8 1
  14    7    9 1
  15    7   27 1
  16    8   25 2
  17    8   26 am
  18    9   10 1
  19    9   57 1
  20    9   58 1
  21   10   11 am
  22   10   12 2
  23   11   13 1
  24   11   17 1
  25   13   14 1
  26   13   59 1
  27   13   60 1
  28   14   15 1
  29   14   61 1
  30   14   62 1
  31   15   16 1
  32   15   18 1
  33   15   63 1
  34   16   17 1
  35   16   64 1
  36   16   65 1
  37   17   66 1
  38   17   67 1
  39   18   19 1
  40   18   23 1
  41   19   20 1
  42   19   68 1
  43   19   69 1
  44   20   21 1
  45   20   70 1
  46   20   71 1
  47   21   22 1
  48   21   24 1
  49   22   23 1
  50   22   72 1
  51   22   73 1
  52   23   74 1
  53   23   75 1
  54   24   43 1
  55   24   76 1
  56   24   77 1
  57   26   45 am
  58   26   28 1
  59   27   28 ar
  60   27   29 ar
  61   28   32 ar
  62   29   30 ar
  63   29   78 1
  64   30   31 ar
  65   30   48 1
  66   31   32 ar
  67   31   33 1
  68   32   79 1
  69   34   35 ar
  70   34   36 ar
  71   34   45 1
  72   35   41 1
  73   35   39 ar
  74   36   37 ar
  75   36   80 1
  76   37   38 ar
  77   37   81 1
  78   38   39 ar
  79   38   40 1
  80   39   82 1
  81   40   42 1
  82   42   83 1
  83   42   84 1
  84   42   85 1
  85   43   44 1
  86   43   86 1
  87   43   87 1
  88   44   88 1
  89   44   89 1
  90   44   90 1
  91   45   46 2
  92   45   47 2
  93   48   49 3
  94   50   52 1
  95   51   52 1
  96   51   91 1
  97   51   92 1
  98   51   93 1
  99   52   94 1
 100   52   95 1

#	End of record

