#	Name: ASD09900004
#	Creating user name:	WinNT
#	Creation time:	15. 06. 2019 21:24

#	Modifying user name:	WinNT
#	Modification time:	15. 06. 2019 21:24

#	Program:	/corina/corina34_cracker 3.40 0067  02.08.2006

@<TRIPOS>MOLECULE
ASD09900004
  33   34    0    0    0
SMALL
NO_CHARGES


@<TRIPOS>ATOM
   1 O1             0.0021    -0.0041     0.0020 O.2     
   2 C2            -0.0144     1.2086     0.0087 C.2     
   3 C3             1.2483     1.9607     0.0007 C.2     
   4 C4             1.2300     3.3063     0.0081 C.2     
   5 C5             2.5247     4.0774    -0.0002 C.3     
   6 C6             2.5282     5.0409    -1.1589 C.ar    
   7 C7             2.0342     6.3216    -0.9931 C.ar    
   8 C8             2.0362     7.2067    -2.0538 C.ar    
   9 C9             2.5345     6.8095    -3.2862 C.ar    
  10 C10            3.0297     5.5240    -3.4499 C.ar    
  11 C11            3.0306     4.6445    -2.3846 C.ar    
  12 O12            2.5373     7.6782    -4.3313 O.3     
  13 C13            2.5435     1.2362    -0.0156 C.ar    
  14 C14            2.9144     0.4447     1.0698 C.ar    
  15 C15            4.1183    -0.2278     1.0517 C.ar    
  16 C16            4.9607    -0.1164    -0.0461 C.ar    
  17 C17            4.5941     0.6717    -1.1286 C.ar    
  18 C18            3.3886     1.3415    -1.1187 C.ar    
  19 O19            6.1465    -0.7798    -0.0610 O.3     
  20 H20           -0.9569     1.7359     0.0160 H       
  21 H21            0.2875     3.8335     0.0199 H       
  22 H22            2.6235     4.6315     0.9333 H       
  23 H23            3.3598     3.3843    -0.1014 H       
  24 H24            1.6460     6.6302    -0.0337 H       
  25 H25            1.6499     8.2068    -1.9239 H       
  26 H26            3.4181     5.2124    -4.4083 H       
  27 H27            3.4159     3.6436    -2.5115 H       
  28 H28            3.3422     8.2097    -4.3988 H       
  29 H29            2.2598     0.3582     1.9245 H       
  30 H30            4.4062    -0.8414     1.8926 H       
  31 H31            5.2516     0.7568    -1.9812 H       
  32 H32            3.1037     1.9542    -1.9613 H       
  33 H33            6.0953    -1.6685    -0.4387 H       
@<TRIPOS>BOND
   1    1    2 2
   2    2    3 1
   3    2   20 1
   4    3    4 2
   5    3   13 1
   6    4    5 1
   7    4   21 1
   8    5    6 1
   9    5   22 1
  10    5   23 1
  11    6    7 ar
  12    6   11 ar
  13    7    8 ar
  14    7   24 1
  15    8    9 ar
  16    8   25 1
  17    9   10 ar
  18    9   12 1
  19   10   11 ar
  20   10   26 1
  21   11   27 1
  22   12   28 1
  23   13   14 ar
  24   13   18 ar
  25   14   15 ar
  26   14   29 1
  27   15   16 ar
  28   15   30 1
  29   16   17 ar
  30   16   19 1
  31   17   18 ar
  32   17   31 1
  33   18   32 1
  34   19   33 1

#	End of record

