#	Name: ASD01880296
#	Creating user name:	WinNT
#	Creation time:	15. 06. 2019 19:40

#	Modifying user name:	WinNT
#	Modification time:	15. 06. 2019 19:40

#	Program:	/corina/corina34_cracker 3.40 0067  02.08.2006

@<TRIPOS>MOLECULE
ASD01880296
  46   48    0    0    0
SMALL
NO_CHARGES


@<TRIPOS>ATOM
   1 C1            -0.0164     1.3606     0.0095 C.2     
   2 C2             0.0021    -0.0041     0.0020 C.2     
   3 N3            -1.1565    -0.7092     0.0093 N.am    
   4 C4            -2.3470    -0.0814     0.0241 C.2     
   5 C5            -2.4079     1.3233     0.0322 C.2     
   6 C6            -1.2519     2.0432     0.0309 C.2     
   7 O7            -3.3782    -0.7344     0.0300 O.2     
   8 C8            -1.1115    -2.1735     0.0005 C.3     
   9 C9            -1.0822    -2.6837     1.4182 C.ar    
  10 C10           -2.2653    -2.9545     2.0799 C.ar    
  11 C11           -2.2384    -3.4224     3.3804 C.ar    
  12 C12           -1.0284    -3.6200     4.0190 C.ar    
  13 C13            0.1547    -3.3500     3.3570 C.ar    
  14 C14            0.1279    -2.8862     2.0550 C.ar    
  15 C15            1.2565     2.1233     0.0015 C.ar    
  16 C16            1.5830     2.9253    -1.0905 C.ar    
  17 C17            2.7669     3.6330    -1.0952 C.ar    
  18 C18            3.6330     3.5467    -0.0138 C.ar    
  19 C19            3.3105     2.7487     1.0753 C.ar    
  20 C20            2.1251     2.0435     1.0883 C.ar    
  21 O21            4.7992     4.2445    -0.0216 O.3     
  22 C22            5.6434     4.1098     1.1234 C.3     
  23 C23           -0.9992    -4.1292     5.4371 C.3     
  24 O24           -0.9563    -5.5575     5.4295 O.3     
  25 C25           -0.9258    -6.1450     6.7318 C.3     
  26 H26            0.9471    -0.5268    -0.0102 H       
  27 H27           -3.3631     1.8270     0.0436 H       
  28 H28           -1.2801     3.1228     0.0374 H       
  29 H29           -1.9949    -2.5611    -0.5069 H       
  30 H30           -0.2158    -2.5063    -0.5240 H       
  31 H31           -3.2106    -2.8001     1.5810 H       
  32 H32           -3.1628    -3.6333     3.8976 H       
  33 H33            1.1000    -3.5040     3.8560 H       
  34 H34            1.0523    -2.6753     1.5378 H       
  35 H35            0.9099     2.9923    -1.9324 H       
  36 H36            3.0205     4.2547    -1.9411 H       
  37 H37            3.9865     2.6833     1.9150 H       
  38 H38            1.8748     1.4228     1.9359 H       
  39 H39            5.1075     4.4449     2.0114 H       
  40 H40            5.9283     3.0646     1.2439 H       
  41 H41            6.5385     4.7171     0.9884 H       
  42 H42           -0.1154    -3.7418     5.9440 H       
  43 H43           -1.8945    -3.7953     5.9615 H       
  44 H44           -0.0405    -5.7994     7.2656 H       
  45 H45           -1.8196    -5.8529     7.2831 H       
  46 H46           -0.8940    -7.2306     6.6400 H       
@<TRIPOS>BOND
   1    1    2 2
   2    1   15 1
   3    1    6 1
   4    2    3 1
   5    2   26 1
   6    3    4 am
   7    3    8 1
   8    4    5 1
   9    4    7 2
  10    5    6 2
  11    5   27 1
  12    6   28 1
  13    8    9 1
  14    8   29 1
  15    8   30 1
  16    9   10 ar
  17    9   14 ar
  18   10   11 ar
  19   10   31 1
  20   11   12 ar
  21   11   32 1
  22   12   13 ar
  23   12   23 1
  24   13   14 ar
  25   13   33 1
  26   14   34 1
  27   15   16 ar
  28   15   20 ar
  29   16   17 ar
  30   16   35 1
  31   17   18 ar
  32   17   36 1
  33   18   19 ar
  34   18   21 1
  35   19   20 ar
  36   19   37 1
  37   20   38 1
  38   21   22 1
  39   22   39 1
  40   22   40 1
  41   22   41 1
  42   23   24 1
  43   23   42 1
  44   23   43 1
  45   24   25 1
  46   25   44 1
  47   25   45 1
  48   25   46 1

#	End of record

