#	Name: ASD02770099
#	Creating user name:	WinNT
#	Creation time:	15. 06. 2019 20:26

#	Modifying user name:	WinNT
#	Modification time:	15. 06. 2019 20:26

#	Program:	/corina/corina34_cracker 3.40 0067  02.08.2006

@<TRIPOS>MOLECULE
ASD02770099
  27   26    0    0    0
SMALL
NO_CHARGES


@<TRIPOS>ATOM
   1 N1            -0.0789     1.4103     0.0506 N.pl3   
   2 C2            -0.1380    -0.0405    -0.1882 C.3     
   3 C3             0.9236    -0.4022    -1.2333 C.3     
   4 O4             2.1879     0.1224    -0.8210 O.3     
   5 C5             2.2269     1.5483    -0.7255 C.3     
   6 C6             1.2321     2.0098     0.3456 C.3     
   7 C7            -1.2140     2.1835    -0.0060 C.2     
   8 N8            -2.3512     1.6471    -0.3459 N.2     
   9 N9            -1.1488     3.5276     0.2972 N.pl3   
  10 C10           -2.3064     4.2731     0.3794 C.2     
  11 N11           -3.4662     3.6864     0.2942 N.2     
  12 N12           -2.2361     5.6351     0.5512 N.pl3   
  13 H13            0.0645    -0.5740     0.7406 H       
  14 H14           -1.1262    -0.3115    -0.5597 H       
  15 H15            0.9912    -1.4863    -1.3235 H       
  16 H16            0.6476     0.0276    -2.1963 H       
  17 H17            3.2322     1.8674    -0.4504 H       
  18 H18            1.9558     1.9851    -1.6866 H       
  19 H19            1.1512     3.0967     0.3276 H       
  20 H20            1.5726     1.6829     1.3281 H       
  21 H21           -3.1423     2.2016    -0.4331 H       
  22 H22           -0.2888     3.9486     0.4525 H       
  23 H23           -4.2803     4.2107     0.3521 H       
  24 H24           -1.3724     6.0720     0.6146 H       
  25 H25           -3.0502     6.1594     0.6090 H       
  26 Cl26           8.2322    11.1594     6.3281 Cl      
  27 H27            8.2322    12.5294     6.3281 H       
@<TRIPOS>BOND
   1    1    2 1
   2    1    6 1
   3    1    7 1
   4    2    3 1
   5    2   13 1
   6    2   14 1
   7    3    4 1
   8    3   15 1
   9    3   16 1
  10    4    5 1
  11    5    6 1
  12    5   17 1
  13    5   18 1
  14    6   19 1
  15    6   20 1
  16    7    8 2
  17    7    9 1
  18    8   21 1
  19    9   10 1
  20    9   22 1
  21   10   11 2
  22   10   12 1
  23   11   23 1
  24   12   24 1
  25   12   25 1
  26   26   27 1

#	End of record

