#	Name: ASD03091909
#	Creating user name:	WinNT
#	Creation time:	15. 06. 2019 20:31

#	Modifying user name:	WinNT
#	Modification time:	15. 06. 2019 20:31

#	Program:	/corina/corina34_cracker 3.40 0067  02.08.2006

@<TRIPOS>MOLECULE
ASD03091909
  53   57    0    0    0
SMALL
NO_CHARGES


@<TRIPOS>ATOM
   1 C1            -0.0168     1.3903     0.0097 C.ar    
   2 C2            -1.2525     2.0635     0.0193 C.ar    
   3 C3            -2.4524     1.3091     0.0019 C.ar    
   4 C4            -2.3951    -0.0983    -0.0259 C.ar    
   5 C5            -1.1964    -0.7350    -0.0252 C.ar    
   6 C6             0.0021    -0.0041     0.0020 C.ar    
   7 O7             1.1547     2.0667     0.0021 O.3     
   8 C8             2.2699     1.4671     0.6600 C.3     
   9 N9             2.4110     0.0636     0.2686 N.am    
  10 C10            1.3116    -0.6841     0.0241 C.2     
  11 C11           -3.6706    -0.9004    -0.0559 C.3     
  12 C12           -4.1462    -1.0345    -1.4796 C.ar    
  13 C13           -3.7325    -2.1027    -2.2602 C.ar    
  14 O14            1.3992    -1.8812    -0.1718 O.2     
  15 C15           -3.6852     1.9817     0.0130 C.ar    
  16 C16           -1.3193     3.4656     0.0468 C.ar    
  17 C17           -2.5330     4.0835     0.0573 C.ar    
  18 C18           -3.7125     3.3430     0.0402 C.ar    
  19 C19            3.7440    -0.5307     0.1413 C.3     
  20 C20            4.1661    -1.1289     1.4848 C.3     
  21 C21            5.6033    -1.7003     1.3913 C.3     
  22 C22            6.0442    -1.6343     2.8790 C.3     
  23 C23            5.3283    -0.3602     3.3766 C.3     
  24 O24            4.2349    -0.1029     2.4878 O.3     
  25 C25           -5.0052    -0.0969    -2.0217 C.ar    
  26 C26           -4.1956    -2.1853    -3.5647 C.ar    
  27 C27           -5.0481    -1.2070    -4.0398 C.ar    
  28 N28           -5.4259    -0.2078    -3.2664 N.ar    
  29 C29           -5.5572    -1.2864    -5.4560 C.3     
  30 H30           -1.1642    -1.8143    -0.0457 H       
  31 H31            3.1777     2.0074     0.3917 H       
  32 H32            2.1240     1.5257     1.7386 H       
  33 H33           -3.4868    -1.8908     0.3606 H       
  34 H34           -4.4328    -0.3932     0.5356 H       
  35 H35           -3.0650    -2.8526    -1.8620 H       
  36 H36           -4.6084     1.4214    -0.0002 H       
  37 H37           -0.4122     4.0517     0.0599 H       
  38 H38           -2.5814     5.1622     0.0793 H       
  39 H39           -4.6629     3.8560     0.0487 H       
  40 H40            3.7212    -1.3156    -0.6148 H       
  41 H41            4.4579     0.2381    -0.1544 H       
  42 H42            3.4666    -1.9080     1.7878 H       
  43 H43            5.5945    -2.7285     1.0294 H       
  44 H44            6.2363    -1.0711     0.7657 H       
  45 H45            5.6985    -2.5119     3.4253 H       
  46 H46            7.1260    -1.5276     2.9586 H       
  47 H47            4.9536    -0.5176     4.3879 H       
  48 H48            6.0207     0.4816     3.3644 H       
  49 H49           -5.3357     0.7359    -1.4187 H       
  50 H50           -3.8935    -3.0037    -4.2014 H       
  51 H51           -6.4878    -1.8536    -5.4763 H       
  52 H52           -5.7366    -0.2801    -5.8345 H       
  53 H53           -4.8153    -1.7830    -6.0814 H       
@<TRIPOS>BOND
   1    1    6 ar
   2    1    7 1
   3    1    2 ar
   4    2    3 ar
   5    2   16 ar
   6    3    4 ar
   7    3   15 ar
   8    4    5 ar
   9    4   11 1
  10    5    6 ar
  11    5   30 1
  12    6   10 1
  13    7    8 1
  14    8    9 1
  15    8   31 1
  16    8   32 1
  17    9   10 am
  18    9   19 1
  19   10   14 2
  20   11   12 1
  21   11   33 1
  22   11   34 1
  23   12   13 ar
  24   12   25 ar
  25   13   26 ar
  26   13   35 1
  27   15   18 ar
  28   15   36 1
  29   16   17 ar
  30   16   37 1
  31   17   18 ar
  32   17   38 1
  33   18   39 1
  34   19   20 1
  35   19   40 1
  36   19   41 1
  37   20   24 1
  38   20   21 1
  39   20   42 1
  40   21   22 1
  41   21   43 1
  42   21   44 1
  43   22   23 1
  44   22   45 1
  45   22   46 1
  46   23   24 1
  47   23   47 1
  48   23   48 1
  49   25   28 ar
  50   25   49 1
  51   26   27 ar
  52   26   50 1
  53   27   28 ar
  54   27   29 1
  55   29   51 1
  56   29   52 1
  57   29   53 1

#	End of record

