#	Name: ASD01230039
#	Creating user name:	WinNT
#	Creation time:	15. 06. 2019 19:11

#	Modifying user name:	WinNT
#	Modification time:	15. 06. 2019 19:11

#	Program:	/corina/corina34_cracker 3.40 0067  02.08.2006

@<TRIPOS>MOLECULE
ASD01230039
  30   32    0    0    0
SMALL
NO_CHARGES


@<TRIPOS>ATOM
   1 C1            -0.0167     1.3767     0.0096 C.ar    
   2 C2             0.0021    -0.0041     0.0020 C.ar    
   3 C3            -1.1912    -0.7195    -0.0039 C.ar    
   4 C4            -2.4271    -0.0396    -0.0019 C.ar    
   5 C5            -2.4167     1.3446     0.0330 C.ar    
   6 C6            -1.2284     2.0475     0.0306 C.ar    
   7 N7            -3.5822    -0.8039    -0.0732 N.3     
   8 C8            -4.7775    -0.2554     0.5541 C.3     
   9 N9            -5.1079     1.0410    -0.0746 N.am    
  10 S10           -3.9479     2.2279     0.1202 S.o2    
  11 O11           -4.0709     2.7116     1.4507 O.2     
  12 O12           -4.0111     3.0602    -1.0298 O.2     
  13 C13           -5.9446    -1.2266     0.3656 C.3     
  14 Cl14           1.4728     2.2684     0.0002 Cl      
  15 C15           -1.1638    -2.1971    -0.0129 C.2     
  16 C16           -0.4408    -2.9571    -0.8597 C.2     
  17 C17           -0.5788    -4.3178    -0.6740 C.2     
  18 C18           -1.4051    -4.6732     0.3134 C.2     
  19 S19           -2.0634    -3.2363     1.0845 S.3     
  20 H20            0.9454    -0.5299     0.0003 H       
  21 H21           -1.2438     3.1274     0.0367 H       
  22 H22           -3.7700    -1.0874    -1.0232 H       
  23 H23           -4.5947    -0.1076     1.6184 H       
  24 H24           -5.9330     1.1908    -0.5620 H       
  25 H25           -5.6992    -2.1834     0.8265 H       
  26 H26           -6.8385    -0.8158     0.8350 H       
  27 H27           -6.1277    -1.3724    -0.6990 H       
  28 H28            0.1956    -2.5347    -1.6232 H       
  29 H29           -0.0574    -5.0418    -1.2826 H       
  30 H30           -1.6313    -5.6901     0.5984 H       
@<TRIPOS>BOND
   1    1    2 ar
   2    1   14 1
   3    1    6 ar
   4    2    3 ar
   5    2   20 1
   6    3    4 ar
   7    3   15 1
   8    4    5 ar
   9    4    7 1
  10    5    6 ar
  11    5   10 1
  12    6   21 1
  13    7    8 1
  14    7   22 1
  15    8    9 1
  16    8   13 1
  17    8   23 1
  18    9   10 am
  19    9   24 1
  20   10   11 2
  21   10   12 2
  22   13   25 1
  23   13   26 1
  24   13   27 1
  25   15   16 2
  26   15   19 1
  27   16   17 1
  28   16   28 1
  29   17   18 2
  30   17   29 1
  31   18   19 1
  32   18   30 1

#	End of record

