#	Name: ASD03731635
#	Creating user name:	WinNT
#	Creation time:	15. 06. 2019 20:46

#	Modifying user name:	WinNT
#	Modification time:	15. 06. 2019 20:46

#	Program:	/corina/corina34_cracker 3.40 0067  02.08.2006

@<TRIPOS>MOLECULE
ASD03731635
  33   34    0    0    0
SMALL
NO_CHARGES


@<TRIPOS>ATOM
   1 C1            -0.0179     1.4702     0.0101 C.2     
   2 C2             0.0021    -0.0041     0.0020 C.ar    
   3 C3             1.2225    -0.6896    -0.0133 C.ar    
   4 C4             1.2360    -2.0699    -0.0204 C.ar    
   5 C5             0.0415    -2.7777    -0.0123 C.ar    
   6 C6            -1.1747    -2.0994     0.0025 C.ar    
   7 C7            -1.1979    -0.7217     0.0155 C.ar    
   8 O8             1.0268     2.0925     0.0035 O.2     
   9 N9            -1.1941     2.1282     0.0193 N.am    
  10 S10           -1.2166     3.7840     0.0284 S.o2    
  11 O11           -2.5980     4.1155     0.0625 O.2     
  12 O12           -0.3511     4.1403     1.0975 O.2     
  13 C13           -0.4880     4.2553    -1.5646 C.3     
  14 F14           -2.3338    -2.7935     0.0099 F       
  15 F15            2.3851    -0.0014    -0.0216 F       
  16 O16            0.0593    -4.1349    -0.0193 O.3     
  17 C17            1.2682    -4.7574    -0.0342 C.ar    
  18 C18            1.8985    -5.0821     1.1599 C.ar    
  19 C19            3.1285    -5.7155     1.1412 C.ar    
  20 C20            3.7300    -6.0252    -0.0645 C.ar    
  21 C21            3.1054    -5.7030    -1.2551 C.ar    
  22 C22            1.8724    -5.0751    -1.2435 C.ar    
  23 F23            1.2597    -4.7664    -2.4073 F       
  24 F24            1.3116    -4.7793     2.3385 F       
  25 H25            2.1769    -2.5999    -0.0326 H       
  26 H26           -2.1417    -0.1970     0.0315 H       
  27 H27           -2.0275     1.6318     0.0205 H       
  28 H28           -1.0900     3.8446    -2.3752 H       
  29 H29           -0.4628     5.3420    -1.6453 H       
  30 H30            0.5266     3.8625    -1.6305 H       
  31 H31            3.6194    -5.9679     2.0695 H       
  32 H32            4.6901    -6.5196    -0.0764 H       
  33 H33            3.5781    -5.9460    -2.1953 H       
@<TRIPOS>BOND
   1    1    2 1
   2    1    8 2
   3    1    9 am
   4    2    3 ar
   5    2    7 ar
   6    3    4 ar
   7    3   15 1
   8    4    5 ar
   9    4   25 1
  10    5    6 ar
  11    5   16 1
  12    6    7 ar
  13    6   14 1
  14    7   26 1
  15    9   10 am
  16    9   27 1
  17   10   11 2
  18   10   12 2
  19   10   13 1
  20   13   28 1
  21   13   29 1
  22   13   30 1
  23   16   17 1
  24   17   18 ar
  25   17   22 ar
  26   18   19 ar
  27   18   24 1
  28   19   20 ar
  29   19   31 1
  30   20   21 ar
  31   20   32 1
  32   21   22 ar
  33   21   33 1
  34   22   23 1

#	End of record

