#	Name: ASD04370003
#	Creating user name:	WinNT
#	Creation time:	15. 06. 2019 20:48

#	Modifying user name:	WinNT
#	Modification time:	15. 06. 2019 20:48

#	Program:	/corina/corina34_cracker 3.40 0067  02.08.2006

@<TRIPOS>MOLECULE
ASD04370003
  64   64    0    0    0
SMALL
NO_CHARGES


@<TRIPOS>ATOM
   1 C1             3.2665    -0.4330    -0.7076 C.2     
   2 C2             1.9337     0.2213    -0.9655 C.3     
   3 C3             0.9276    -0.2365     0.0924 C.3     
   4 C4            -0.4556     0.3253    -0.2424 C.3     
   5 O5             3.4224    -1.1301     0.2804 O.co2   
   6 O6             4.1874    -0.2693    -1.4897 O.co2   
   7 N7            -1.4387    -0.1875     0.7212 N.4     
   8 C8            -1.1266     0.3285     2.0607 C.3     
   9 C9            -2.7844     0.2517     0.3285 C.3     
  10 C10           -1.3882    -1.6556     0.7380 C.3     
  11 N11            1.3472     0.2508     1.4087 N.am    
  12 C12            1.5401     1.5696     1.6089 C.2     
  13 C13            2.0815     2.0604     2.9269 C.3     
  14 C14            2.2039     3.5851     2.8920 C.3     
  15 C15            2.7536     4.0834     4.2301 C.3     
  16 C16            2.8760     5.6081     4.1952 C.3     
  17 C17            3.4257     6.1063     5.5332 C.3     
  18 C18            3.5481     7.6310     5.4984 C.3     
  19 C19            4.0977     8.1293     6.8364 C.3     
  20 O20            1.2779     2.3614     0.7284 O.2     
  21 O21            4.2121     9.5533     6.8039 O.3     
  22 C22            4.7191    10.1235     8.0121 C.3     
  23 C23            4.7973    11.6214     7.8665 C.ar    
  24 C24            5.2625    12.3957     8.9160 C.ar    
  25 C25            5.3343    13.7716     8.7823 C.ar    
  26 C26            4.9421    14.3725     7.6011 C.ar    
  27 C27            4.4774    13.5985     6.5518 C.ar    
  28 C28            4.4101    12.2217     6.6839 C.ar    
  29 F29            4.0940    14.1859     5.3971 F       
  30 F30            5.6460    11.8083    10.0706 F       
  31 H31            2.0451     1.3045    -0.9162 H       
  32 H32            1.5750    -0.0624    -1.9549 H       
  33 H33            0.8841    -1.3256     0.1051 H       
  34 H34           -0.4283     1.4136    -0.1892 H       
  35 H35           -0.7388     0.0176    -1.2490 H       
  36 H36           -0.9681     1.4056     2.0073 H       
  37 H37           -1.9569     0.1163     2.7344 H       
  38 H38           -0.2232    -0.1536     2.4344 H       
  39 H39           -3.0159    -0.1312    -0.6654 H       
  40 H40           -3.5138    -0.1288     1.0435 H       
  41 H41           -2.8218     1.3410     0.3161 H       
  42 H42           -0.3897    -1.9815     1.0294 H       
  43 H43           -2.1177    -2.0361     1.4530 H       
  44 H44           -1.6198    -2.0385    -0.2559 H       
  45 H45            1.4862    -0.3756     2.1361 H       
  46 H46            1.4040     1.7685     3.7293 H       
  47 H47            3.0634     1.6210     3.1025 H       
  48 H48            2.8814     3.8769     2.0895 H       
  49 H49            1.2220     4.0245     2.7163 H       
  50 H50            2.0761     3.7915     5.0325 H       
  51 H51            3.7355     3.6440     4.4057 H       
  52 H52            3.5535     5.8999     3.3927 H       
  53 H53            1.8941     6.0475     4.0195 H       
  54 H54            2.7481     5.8145     6.3357 H       
  55 H55            4.4076     5.6669     5.7089 H       
  56 H56            4.2256     7.9229     4.6959 H       
  57 H57            2.5661     8.0704     5.3227 H       
  58 H58            3.4202     7.8374     7.6389 H       
  59 H59            5.0797     7.6899     7.0121 H       
  60 H60            4.0545     9.8730     8.8389 H       
  61 H61            5.7139     9.7255     8.2122 H       
  62 H62            5.6965    14.3756     9.6011 H       
  63 H63            4.9978    15.4461     7.4969 H       
  64 H64            4.0514    11.6174     5.8637 H       
@<TRIPOS>BOND
   1    1    2 1
   2    1    5 ar
   3    1    6 ar
   4    2    3 1
   5    2   31 1
   6    2   32 1
   7    3    4 1
   8    3   11 1
   9    3   33 1
  10    4    7 1
  11    4   34 1
  12    4   35 1
  13    7    8 1
  14    7    9 1
  15    7   10 1
  16    8   36 1
  17    8   37 1
  18    8   38 1
  19    9   39 1
  20    9   40 1
  21    9   41 1
  22   10   42 1
  23   10   43 1
  24   10   44 1
  25   11   12 am
  26   11   45 1
  27   12   13 1
  28   12   20 2
  29   13   14 1
  30   13   46 1
  31   13   47 1
  32   14   15 1
  33   14   48 1
  34   14   49 1
  35   15   16 1
  36   15   50 1
  37   15   51 1
  38   16   17 1
  39   16   52 1
  40   16   53 1
  41   17   18 1
  42   17   54 1
  43   17   55 1
  44   18   19 1
  45   18   56 1
  46   18   57 1
  47   19   21 1
  48   19   58 1
  49   19   59 1
  50   21   22 1
  51   22   23 1
  52   22   60 1
  53   22   61 1
  54   23   24 ar
  55   23   28 ar
  56   24   25 ar
  57   24   30 1
  58   25   26 ar
  59   25   62 1
  60   26   27 ar
  61   26   63 1
  62   27   28 ar
  63   27   29 1
  64   28   64 1

#	End of record

