#	Name: ASD01883104
#	Creating user name:	WinNT
#	Creation time:	15. 06. 2019 19:45

#	Modifying user name:	WinNT
#	Modification time:	15. 06. 2019 19:45

#	Program:	/corina/corina34_cracker 3.40 0067  02.08.2006

@<TRIPOS>MOLECULE
ASD01883104
  50   52    0    0    0
SMALL
NO_CHARGES


@<TRIPOS>ATOM
   1 N1            -0.0162     1.3417     0.0094 N.am    
   2 C2             0.0021    -0.0041     0.0020 C.2     
   3 C3            -1.2159    -0.7274     0.0102 C.2     
   4 C4            -2.4262    -0.0109     0.0261 C.2     
   5 C5            -2.3786     1.3974     0.0332 C.2     
   6 C6            -1.1851     2.0327     0.0299 C.2     
   7 O7             1.0657    -0.6000    -0.0122 O.2     
   8 C8            -1.2149    -2.1593     0.0021 C.1     
   9 N9            -1.2142    -3.2953    -0.0044 N.1     
  10 C10            1.2513     2.0763     0.0013 C.3     
  11 C11           -3.7215    -0.7207     0.0347 C.ar    
  12 C12            1.6788     2.3398    -1.4440 C.3     
  13 C13            3.0025     3.1070    -1.4525 C.3     
  14 C14            3.4299     3.3705    -2.8978 C.3     
  15 C15           -4.5704    -0.6152     1.1398 C.ar    
  16 C16           -5.7770    -1.2779     1.1448 C.ar    
  17 C17           -6.1515    -2.0529     0.0510 C.ar    
  18 C18           -5.3080    -2.1603    -1.0509 C.ar    
  19 C19           -4.1031    -1.4946    -1.0647 C.ar    
  20 N20           -7.3720    -2.7222     0.0593 N.3     
  21 C21           -7.5670    -3.4765    -1.1855 C.3     
  22 C22           -8.8448    -4.3123    -1.0822 C.3     
  23 C23          -10.0371    -3.3843    -0.8337 C.3     
  24 C24           -9.7870    -2.5754     0.4421 C.3     
  25 C25           -8.4819    -1.7899     0.2946 C.3     
  26 H26           -3.2949     1.9689     0.0450 H       
  27 H27           -1.1610     3.1124     0.0354 H       
  28 H28            1.1243     3.0257     0.5214 H       
  29 H29            2.0168     1.4857     0.5046 H       
  30 H30            1.8057     1.3903    -1.9642 H       
  31 H31            0.9133     2.9303    -1.9474 H       
  32 H32            2.8755     4.0564    -0.9323 H       
  33 H33            3.7680     2.5164    -0.9491 H       
  34 H34            2.6645     3.9610    -3.4011 H       
  35 H35            4.3730     3.9170    -2.9038 H       
  36 H36            3.5569     2.4210    -3.4179 H       
  37 H37           -4.2801    -0.0146     1.9891 H       
  38 H38           -6.4335    -1.1968     1.9985 H       
  39 H39           -5.6012    -2.7627    -1.8980 H       
  40 H40           -3.4492    -1.5781    -1.9201 H       
  41 H41           -7.6538    -2.7821    -2.0211 H       
  42 H42           -6.7142    -4.1355    -1.3482 H       
  43 H43           -8.9976    -4.8600    -2.0121 H       
  44 H44           -8.7532    -5.0165    -0.2553 H       
  45 H45          -10.1527    -2.7055    -1.6786 H       
  46 H46          -10.9432    -3.9788    -0.7163 H       
  47 H47          -10.6130    -1.8821     0.6012 H       
  48 H48           -9.7103    -3.2522     1.2930 H       
  49 H49           -8.2935    -1.2240     1.2070 H       
  50 H50           -8.5644    -1.1034    -0.5480 H       
@<TRIPOS>BOND
   1    1    2 am
   2    1   10 1
   3    1    6 1
   4    2    3 1
   5    2    7 2
   6    3    4 2
   7    3    8 1
   8    4    5 1
   9    4   11 1
  10    5    6 2
  11    5   26 1
  12    6   27 1
  13    8    9 3
  14   10   12 1
  15   10   28 1
  16   10   29 1
  17   11   15 ar
  18   11   19 ar
  19   12   13 1
  20   12   30 1
  21   12   31 1
  22   13   14 1
  23   13   32 1
  24   13   33 1
  25   14   34 1
  26   14   35 1
  27   14   36 1
  28   15   16 ar
  29   15   37 1
  30   16   17 ar
  31   16   38 1
  32   17   18 ar
  33   17   20 1
  34   18   19 ar
  35   18   39 1
  36   19   40 1
  37   20   21 1
  38   20   25 1
  39   21   22 1
  40   21   41 1
  41   21   42 1
  42   22   23 1
  43   22   43 1
  44   22   44 1
  45   23   24 1
  46   23   45 1
  47   23   46 1
  48   24   25 1
  49   24   47 1
  50   24   48 1
  51   25   49 1
  52   25   50 1

#	End of record

