#	Name: ASD01330011
#	Creating user name:	WinNT
#	Creation time:	15. 06. 2019 19:16

#	Modifying user name:	WinNT
#	Modification time:	15. 06. 2019 19:16

#	Program:	/corina/corina34_cracker 3.40 0067  02.08.2006

@<TRIPOS>MOLECULE
ASD01330011
  14   13    0    0    0
SMALL
NO_CHARGES


@<TRIPOS>ATOM
   1 C1            -0.0184     1.5028     0.0103 C.2     
   2 C2             0.0021    -0.0041     0.0020 C.3     
   3 C3             1.4513    -0.4944    -0.0145 C.3     
   4 C4             1.4717    -2.0012    -0.0227 C.2     
   5 O5             1.0197     2.1211     0.0037 O.2     
   6 O6            -1.1898     2.1580     0.0194 O.3     
   7 O7             0.4337    -2.6195    -0.0162 O.2     
   8 O8             2.6431    -2.6565    -0.0374 O.3     
   9 H9            -0.4983    -0.3791     0.8948 H       
  10 H10           -0.5153    -0.3696    -0.8850 H       
  11 H11            1.9516    -0.1193    -0.9073 H       
  12 H12            1.9686    -0.1289     0.8726 H       
  13 H13           -1.1523     3.1243     0.0245 H       
  14 H14            2.6056    -3.6227    -0.0423 H       
@<TRIPOS>BOND
   1    1    2 1
   2    1    5 2
   3    1    6 1
   4    2    3 1
   5    2    9 1
   6    2   10 1
   7    3    4 1
   8    3   11 1
   9    3   12 1
  10    4    7 2
  11    4    8 1
  12    6   13 1
  13    8   14 1

#	End of record

