#	Name: ASD01917314
#	Creating user name:	WinNT
#	Creation time:	15. 06. 2019 20:09

#	Modifying user name:	WinNT
#	Modification time:	15. 06. 2019 20:09

#	Program:	/corina/corina34_cracker 3.40 0067  02.08.2006

@<TRIPOS>MOLECULE
ASD01917314
  48   51    0    0    0
SMALL
NO_CHARGES


@<TRIPOS>ATOM
   1 C1            -0.0168     1.3896     0.0097 C.ar    
   2 C2             0.0021    -0.0041     0.0020 C.ar    
   3 C3             1.2210    -0.6608    -0.0132 C.ar    
   4 C4             2.3830     0.1001    -0.0202 C.ar    
   5 C5             2.2882     1.4856    -0.0119 C.ar    
   6 N6             1.1163     2.0811     0.0026 N.ar    
   7 C7            -1.3128     2.1054     0.0197 C.2     
   8 O8            -2.3535     1.4779     0.0212 O.2     
   9 N9            -1.3383     3.4529     0.0271 N.am    
  10 C10           -2.6206     4.1612     0.0371 C.3     
  11 C11           -3.4820     3.8046     1.2612 C.3     
  12 C12           -4.8857     4.3818     1.0684 C.3     
  13 C13           -4.8116     5.8900     0.8223 C.3     
  14 C14           -3.8930     6.1568    -0.3830 C.3     
  15 C15           -4.2830     5.1538    -1.4932 C.3     
  16 C16           -3.4681     3.8759    -1.2242 C.3     
  17 C17           -2.4684     5.7053     0.0341 C.3     
  18 N18           -3.9500     7.5491    -0.8352 N.am    
  19 C19           -5.1218     8.0794    -1.2380 C.2     
  20 O20           -6.1310     7.4027    -1.2260 O.2     
  21 C21           -5.1795     9.4876    -1.6953 C.ar    
  22 C22           -6.3937    10.0298    -2.1103 C.ar    
  23 C23           -6.4320    11.3485    -2.5350 C.ar    
  24 C24           -5.2540    12.0793    -2.5297 C.ar    
  25 C25           -4.0820    11.4754    -2.1036 C.ar    
  26 N26           -4.0750    10.2233    -1.7009 N.ar    
  27 F27            3.5927    -0.5013    -0.0346 F       
  28 H28           -0.9214    -0.5641     0.0082 H       
  29 H29            1.2671    -1.7398    -0.0191 H       
  30 H30            3.1888     2.0815    -0.0170 H       
  31 H31           -0.5076     3.9537     0.0259 H       
  32 H32           -3.5438     2.7209     1.3605 H       
  33 H33           -3.0332     4.2294     2.1591 H       
  34 H34           -5.3596     3.8997     0.2134 H       
  35 H35           -5.4800     4.1910     1.9619 H       
  36 H36           -5.8096     6.2747     0.6124 H       
  37 H37           -4.4071     6.3842     1.7056 H       
  38 H38           -5.3498     4.9355    -1.4430 H       
  39 H39           -4.0291     5.5610    -2.4720 H       
  40 H40           -2.8176     3.6610    -2.0720 H       
  41 H41           -4.1382     3.0355    -1.0431 H       
  42 H42           -2.2165     6.0751     1.0280 H       
  43 H43           -1.7272     6.0236    -0.6991 H       
  44 H44           -3.1445     8.0893    -0.8447 H       
  45 H45           -7.2924     9.4310    -2.1017 H       
  46 H46           -7.3584    11.7965    -2.8628 H       
  47 H47           -5.2497    13.1092    -2.8549 H       
  48 H48           -3.1624    12.0418    -2.0982 H       
@<TRIPOS>BOND
   1    1    2 ar
   2    1    6 ar
   3    1    7 1
   4    2    3 ar
   5    2   28 1
   6    3    4 ar
   7    3   29 1
   8    4    5 ar
   9    4   27 1
  10    5    6 ar
  11    5   30 1
  12    7    8 2
  13    7    9 am
  14    9   10 1
  15    9   31 1
  16   10   11 1
  17   10   16 1
  18   10   17 1
  19   11   12 1
  20   11   32 1
  21   11   33 1
  22   12   13 1
  23   12   34 1
  24   12   35 1
  25   13   14 1
  26   13   36 1
  27   13   37 1
  28   14   15 1
  29   14   17 1
  30   14   18 1
  31   15   16 1
  32   15   38 1
  33   15   39 1
  34   16   40 1
  35   16   41 1
  36   17   42 1
  37   17   43 1
  38   18   19 am
  39   18   44 1
  40   19   20 2
  41   19   21 1
  42   21   22 ar
  43   21   26 ar
  44   22   23 ar
  45   22   45 1
  46   23   24 ar
  47   23   46 1
  48   24   25 ar
  49   24   47 1
  50   25   26 ar
  51   25   48 1

#	End of record

