#	Name: ASD01880727
#	Creating user name:	WinNT
#	Creation time:	15. 06. 2019 19:41

#	Modifying user name:	WinNT
#	Modification time:	15. 06. 2019 19:41

#	Program:	/corina/corina34_cracker 3.40 0067  02.08.2006

@<TRIPOS>MOLECULE
ASD01880727
  50   53    0    0    0
SMALL
NO_CHARGES


@<TRIPOS>ATOM
   1 N1            -0.0139     1.3122    -0.0055 N.ar    
   2 C2             0.0051    -0.0049    -0.0269 C.ar    
   3 N3             1.1344    -0.6836    -0.0561 N.ar    
   4 C4             2.3055    -0.0609    -0.0652 C.ar    
   5 C5             2.3340     1.3214    -0.0435 C.ar    
   6 C6             1.1198     2.0083    -0.0128 C.ar    
   7 C7             3.6435     2.0673    -0.0523 C.3     
   8 O8             4.0360     2.3246    -1.4021 O.3     
   9 C9             5.2023     2.9933    -1.5877 C.ar    
  10 C10            5.6434     3.2767    -2.8766 C.ar    
  11 C11            6.8230     3.9536    -3.0630 C.ar    
  12 C12            7.5864     4.3613    -1.9640 C.ar    
  13 C13            7.1386     4.0744    -0.6716 C.ar    
  14 C14            5.9520     3.3994    -0.4902 C.ar    
  15 C15            7.5691     4.4094    -4.2923 C.3     
  16 N16            8.7783     5.0865    -3.8100 N.am    
  17 C17            8.7843     5.0564    -2.4663 C.2     
  18 O18            9.6544     5.5353    -1.7650 O.2     
  19 Br19           3.9159    -1.0512    -0.1066 Br      
  20 C20            7.9508     4.5069     0.5218 C.3     
  21 N21            1.0952     3.3945     0.0094 N.pl3   
  22 C22           -0.1234     4.0735    -0.0809 C.ar    
  23 C23           -0.3072     5.2678     0.6042 C.ar    
  24 C24           -1.5124     5.9360     0.5129 C.ar    
  25 C25           -2.5357     5.4171    -0.2590 C.ar    
  26 C26           -2.3562     4.2281    -0.9420 C.ar    
  27 C27           -1.1513     3.5582    -0.8603 C.ar    
  28 C28            9.4547     7.1595    -4.9175 C.3     
  29 C29            9.8096     5.6947    -4.6543 C.3     
  30 H30           -0.9310    -0.5435    -0.0200 H       
  31 H31            3.5271     3.0121     0.4786 H       
  32 H32            4.4076     1.4656     0.4399 H       
  33 H33            5.0587     2.9643    -3.7292 H       
  34 H34            5.6063     3.1783     0.5088 H       
  35 H35            7.8402     3.5504    -4.9060 H       
  36 H36            6.9555     5.1028    -4.8674 H       
  37 H37            7.6385     5.5042     0.8317 H       
  38 H38            7.7937     3.8059     1.3416 H       
  39 H39            9.0076     4.5235     0.2554 H       
  40 H40            1.9235     3.8931     0.0875 H       
  41 H41            0.4913     5.6732     1.2079 H       
  42 H42           -1.6560     6.8646     1.0453 H       
  43 H43           -3.4773     5.9415    -0.3284 H       
  44 H44           -3.1577     3.8252    -1.5434 H       
  45 H45           -1.0117     2.6297    -1.3939 H       
  46 H46           10.2220     7.6120    -5.5456 H       
  47 H47            8.4912     7.2145    -5.4243 H       
  48 H48            9.3980     7.6955    -3.9701 H       
  49 H49           10.7730     5.6397    -4.1475 H       
  50 H50            9.8663     5.1587    -5.6017 H       
@<TRIPOS>BOND
   1    1    2 ar
   2    1    6 ar
   3    2    3 ar
   4    2   30 1
   5    3    4 ar
   6    4    5 ar
   7    4   19 1
   8    5    6 ar
   9    5    7 1
  10    6   21 1
  11    7    8 1
  12    7   31 1
  13    7   32 1
  14    8    9 1
  15    9   10 ar
  16    9   14 ar
  17   10   11 ar
  18   10   33 1
  19   11   12 ar
  20   11   15 1
  21   12   13 ar
  22   12   17 1
  23   13   14 ar
  24   13   20 1
  25   14   34 1
  26   15   16 1
  27   15   35 1
  28   15   36 1
  29   16   17 am
  30   16   29 1
  31   17   18 2
  32   20   37 1
  33   20   38 1
  34   20   39 1
  35   21   22 1
  36   21   40 1
  37   22   23 ar
  38   22   27 ar
  39   23   24 ar
  40   23   41 1
  41   24   25 ar
  42   24   42 1
  43   25   26 ar
  44   25   43 1
  45   26   27 ar
  46   26   44 1
  47   27   45 1
  48   28   29 1
  49   28   46 1
  50   28   47 1
  51   28   48 1
  52   29   49 1
  53   29   50 1

#	End of record

