#	Name: ASD01890494
#	Creating user name:	WinNT
#	Creation time:	15. 06. 2019 19:51

#	Modifying user name:	WinNT
#	Modification time:	15. 06. 2019 19:51

#	Program:	/corina/corina34_cracker 3.40 0067  02.08.2006

@<TRIPOS>MOLECULE
ASD01890494
  34   37    0    0    0
SMALL
NO_CHARGES


@<TRIPOS>ATOM
   1 C1            -0.0155     1.2928     0.0092 C.2     
   2 N2             0.0021    -0.0041     0.0020 N.2     
   3 C3             1.2785    -0.4402    -0.0051 C.ar    
   4 C4             2.1152     0.7037    -0.0061 C.ar    
   5 N5             1.2750     1.7826    -0.0005 N.am    
   6 C6             1.8250    -1.7276    -0.0103 C.ar    
   7 C7             3.2062    -1.8237    -0.0163 C.ar    
   8 C8             4.0192    -0.7027    -0.0166 C.ar    
   9 C9             3.4987     0.5816    -0.0123 C.ar    
  10 C10           -1.2245     2.2000     0.0325 C.3     
  11 C11           -0.8008     3.5291     0.6723 C.3     
  12 C12            0.4187     4.0904    -0.0605 C.3     
  13 C13            1.5578     3.1008    -0.0088 C.2     
  14 O14            2.7033     3.4837     0.0251 O.2     
  15 C15           -1.9376     4.5141     0.5809 C.ar    
  16 C16           -2.4819     5.0503     1.7330 C.ar    
  17 C17           -3.5247     5.9539     1.6491 C.ar    
  18 C18           -4.0229     6.3216     0.4132 C.ar    
  19 C19           -3.4780     5.7862    -0.7388 C.ar    
  20 C20           -2.4323     4.8859    -0.6552 C.ar    
  21 Cl21           3.9407    -3.3966    -0.0229 Cl      
  22 H22            1.1980    -2.6070    -0.0094 H       
  23 H23            5.0913    -0.8333    -0.0206 H       
  24 H24            4.1410     1.4498    -0.0131 H       
  25 H25           -1.5745     2.3751    -0.9849 H       
  26 H26           -2.0182     1.7424     0.6231 H       
  27 H27           -0.5495     3.3631     1.7199 H       
  28 H28            0.1570     4.2859    -1.1004 H       
  29 H29            0.7277     5.0220     0.4134 H       
  30 H30           -2.0926     4.7630     2.6985 H       
  31 H31           -3.9504     6.3722     2.5492 H       
  32 H32           -4.8381     7.0270     0.3478 H       
  33 H33           -3.8675     6.0732    -1.7044 H       
  34 H34           -2.0042     4.4703    -1.5554 H       
@<TRIPOS>BOND
   1    1    2 2
   2    1    5 1
   3    1   10 1
   4    2    3 1
   5    3    4 ar
   6    3    6 ar
   7    4    5 1
   8    4    9 ar
   9    5   13 am
  10    6    7 ar
  11    6   22 1
  12    7    8 ar
  13    7   21 1
  14    8    9 ar
  15    8   23 1
  16    9   24 1
  17   10   11 1
  18   10   25 1
  19   10   26 1
  20   11   12 1
  21   11   15 1
  22   11   27 1
  23   12   13 1
  24   12   28 1
  25   12   29 1
  26   13   14 2
  27   15   16 ar
  28   15   20 ar
  29   16   17 ar
  30   16   30 1
  31   17   18 ar
  32   17   31 1
  33   18   19 ar
  34   18   32 1
  35   19   20 ar
  36   19   33 1
  37   20   34 1

#	End of record

