#	Name: ASD01880134
#	Creating user name:	WinNT
#	Creation time:	15. 06. 2019 19:40

#	Modifying user name:	WinNT
#	Modification time:	15. 06. 2019 19:40

#	Program:	/corina/corina34_cracker 3.40 0067  02.08.2006

@<TRIPOS>MOLECULE
ASD01880134
  53   57    0    0    0
SMALL
NO_CHARGES


@<TRIPOS>ATOM
   1 C1            -0.0168     1.3866     0.0097 C.ar    
   2 C2             0.0021    -0.0041     0.0020 C.ar    
   3 C3            -1.1908    -0.7171     0.0095 C.ar    
   4 C4            -2.3920    -0.0608     0.0240 C.ar    
   5 C5            -2.4274     1.3358     0.0319 C.ar    
   6 C6            -1.2195     2.0577     0.0305 C.ar    
   7 C7            -3.8022    -0.6015     0.0348 C.3     
   8 C8            -4.7307     0.6205     0.0504 C.3     
   9 C9            -3.8138     1.8193     0.0479 C.2     
  10 Cl10          -1.2453     3.7935     0.0407 Cl      
  11 Cl11           1.4742     2.2757     0.0002 Cl      
  12 O12            1.1867    -0.6655    -0.0133 O.3     
  13 C13           -5.6171     0.6286    -1.1967 C.3     
  14 C14           -5.5927     0.6151     1.3145 C.3     
  15 C15           -6.5593     1.8580    -1.1925 C.3     
  16 C16           -6.9053     2.0745    -2.6802 C.3     
  17 C17           -5.7662     1.4357    -3.4939 C.3     
  18 C18           -4.7677     0.8532    -2.4723 C.3     
  19 O19           -4.1620     2.9813     0.0575 O.2     
  20 C20            1.1324    -2.0935    -0.0204 C.3     
  21 C21            2.5330    -2.6493    -0.0372 C.ar    
  22 C22            3.1850    -2.9098     1.1509 C.ar    
  23 C23            4.4799    -3.4238     1.1339 C.ar    
  24 C24            5.1094    -3.6719    -0.0835 C.ar    
  25 C25            4.4481    -3.4077    -1.2662 C.ar    
  26 C26            3.1608    -2.9029    -1.2436 C.ar    
  27 C27            5.1864    -3.7055     2.4089 C.2     
  28 N28            4.7088    -3.5177     3.6472 N.2     
  29 N29            5.6300    -3.8839     4.4725 N.2     
  30 N30            6.6530    -4.2887     3.8041 N.pl3   
  31 N31            6.4031    -4.1942     2.5434 N.2     
  32 H32           -1.1699    -1.7969     0.0035 H       
  33 H33           -3.9819    -1.1970    -0.8603 H       
  34 H34           -3.9645    -1.2066     0.9268 H       
  35 H35           -6.1893    -0.2964    -1.2681 H       
  36 H36           -4.9485     0.6333     2.1936 H       
  37 H37           -6.2375     1.4940     1.3183 H       
  38 H38           -6.2061    -0.2857     1.3321 H       
  39 H39           -7.4610     1.6456    -0.6181 H       
  40 H40           -6.0457     2.7308    -0.7893 H       
  41 H41           -7.8518     1.5889    -2.9179 H       
  42 H42           -6.9672     3.1407    -2.8978 H       
  43 H43           -6.1599     0.6401    -4.1265 H       
  44 H44           -5.2753     2.1919    -4.1064 H       
  45 H45           -3.9649     1.5638    -2.2758 H       
  46 H46           -4.3620    -0.0924    -2.8319 H       
  47 H47            0.6140    -2.4418     0.8729 H       
  48 H48            0.5964    -2.4322    -0.9069 H       
  49 H49            2.6925    -2.7153     2.0922 H       
  50 H50            6.1132    -4.0699    -0.1023 H       
  51 H51            4.9355    -3.5994    -2.2107 H       
  52 H52            2.6470    -2.6976    -2.1711 H       
  53 H53            7.4805    -4.6172     4.1890 H       
@<TRIPOS>BOND
   1    1    2 ar
   2    1   11 1
   3    1    6 ar
   4    2    3 ar
   5    2   12 1
   6    3    4 ar
   7    3   32 1
   8    4    5 ar
   9    4    7 1
  10    5    6 ar
  11    5    9 1
  12    6   10 1
  13    7    8 1
  14    7   33 1
  15    7   34 1
  16    8    9 1
  17    8   13 1
  18    8   14 1
  19    9   19 2
  20   12   20 1
  21   13   15 1
  22   13   18 1
  23   13   35 1
  24   14   36 1
  25   14   37 1
  26   14   38 1
  27   15   16 1
  28   15   39 1
  29   15   40 1
  30   16   17 1
  31   16   41 1
  32   16   42 1
  33   17   18 1
  34   17   43 1
  35   17   44 1
  36   18   45 1
  37   18   46 1
  38   20   21 1
  39   20   47 1
  40   20   48 1
  41   21   22 ar
  42   21   26 ar
  43   22   23 ar
  44   22   49 1
  45   23   24 ar
  46   23   27 1
  47   24   25 ar
  48   24   50 1
  49   25   26 ar
  50   25   51 1
  51   26   52 1
  52   27   28 1
  53   27   31 2
  54   28   29 2
  55   29   30 1
  56   30   31 1
  57   30   53 1

#	End of record

