#	Name: ASD00310031
#	Creating user name:	WinNT
#	Creation time:	15. 06. 2019 18:33

#	Modifying user name:	WinNT
#	Modification time:	15. 06. 2019 18:33

#	Program:	/corina/corina34_cracker 3.40 0067  02.08.2006

@<TRIPOS>MOLECULE
ASD00310031
  28   29    0    0    0
SMALL
NO_CHARGES


@<TRIPOS>ATOM
   1 N1            -0.0179     1.4702     0.0101 N.3     
   2 C2             0.0021    -0.0041     0.0020 C.3     
   3 C3             1.4820    -0.4413     0.0110 C.3     
   4 C4             2.2089     0.7978     0.5967 C.3     
   5 C5             1.3770     1.9600    -0.0006 C.3     
   6 O6             1.6671    -1.5807     0.8533 O.3     
   7 C7            -0.7281     1.9649    -1.0781 C.ar    
   8 C8            -0.8601     3.3383    -1.2465 C.ar    
   9 C9            -1.5689     3.8212    -2.3337 C.ar    
  10 C10           -2.1244     2.9109    -3.2202 C.ar    
  11 C11           -1.9546     1.5521    -2.9929 C.ar    
  12 N12           -1.2672     1.1226    -1.9467 N.ar    
  13 O13           -2.4948     0.6547    -3.8553 O.3     
  14 C14           -2.2854    -0.7292    -3.5672 C.3     
  15 Br15          -3.1029     3.5140    -4.7218 Br      
  16 H16           -0.5030    -0.3866     0.8889 H       
  17 H17           -0.4892    -0.3766    -0.8968 H       
  18 H18            1.8287    -0.6487    -1.0014 H       
  19 H19            2.1590     0.8012     1.6856 H       
  20 H20            3.2429     0.8417     0.2547 H       
  21 H21            1.6974     2.1707    -1.0209 H       
  22 H22            1.4709     2.8516     0.6194 H       
  23 H23            2.5805    -1.8956     0.8938 H       
  24 H24           -0.4155     4.0209    -0.5374 H       
  25 H25           -1.6867     4.8836    -2.4877 H       
  26 H26           -1.2161    -0.9404    -3.5565 H       
  27 H27           -2.7123    -0.9660    -2.5926 H       
  28 H28           -2.7681    -1.3368    -4.3326 H       
@<TRIPOS>BOND
   1    1    2 1
   2    1    5 1
   3    1    7 1
   4    2    3 1
   5    2   16 1
   6    2   17 1
   7    3    4 1
   8    3    6 1
   9    3   18 1
  10    4    5 1
  11    4   19 1
  12    4   20 1
  13    5   21 1
  14    5   22 1
  15    6   23 1
  16    7    8 ar
  17    7   12 ar
  18    8    9 ar
  19    8   24 1
  20    9   10 ar
  21    9   25 1
  22   10   11 ar
  23   10   15 1
  24   11   12 ar
  25   11   13 1
  26   13   14 1
  27   14   26 1
  28   14   27 1
  29   14   28 1

#	End of record

