#	Name: ASD07931982
#	Creating user name:	WinNT
#	Creation time:	15. 06. 2019 21:14

#	Modifying user name:	WinNT
#	Modification time:	15. 06. 2019 21:14

#	Program:	/corina/corina34_cracker 3.40 0067  02.08.2006

@<TRIPOS>MOLECULE
ASD07931982
  48   51    0    0    0
SMALL
NO_CHARGES


@<TRIPOS>ATOM
   1 C1            -0.0912     1.1950    -0.5516 C.ar    
   2 N2             0.0041    -0.0015     0.0224 N.ar    
   3 C3             1.0282     1.7643    -1.1571 C.ar    
   4 C4             1.1549    -0.6435     0.0167 C.ar    
   5 C5             2.2673    -0.0738    -0.5865 C.ar    
   6 N6             2.1779     1.1137    -1.1583 N.ar    
   7 C7            -1.3842     1.9173    -0.5528 C.2     
   8 O8            -1.4693     3.0101    -1.0776 O.2     
   9 N9            -2.4665     1.3627     0.0283 N.am    
  10 C10            3.5809    -0.8123    -0.5897 C.3     
  11 C11           -3.6577     2.0902     0.1269 C.ar    
  12 C12           -4.8805     1.4402     0.0201 C.ar    
  13 C13           -6.0548     2.1601     0.1177 C.ar    
  14 C14           -6.0139     3.5294     0.3220 C.ar    
  15 C15           -4.7960     4.1793     0.4288 C.ar    
  16 C16           -3.6190     3.4622     0.3375 C.ar    
  17 F17           -7.1640     4.2319     0.4167 F       
  18 S18           -8.6639    -0.4171    -2.2162 S.3     
  19 C19           -8.6279     1.3400    -2.1157 C.2     
  20 N20           -8.0688     1.9641    -1.1466 N.2     
  21 C21           -7.3818     1.4555     0.0013 C.3     
  22 C22           -7.1141    -0.0579    -0.0032 C.3     
  23 C23           -8.3584    -0.8154    -0.4765 C.3     
  24 O24           -7.8919     0.5518     2.1580 O.3     
  25 C25           -8.1632     1.6743     1.3069 C.3     
  26 C26           -6.9567    -0.3320     1.5182 C.3     
  27 C27           -7.3018    -1.7888     1.8337 C.3     
  28 F28           -6.4421    -2.6355     1.1258 F       
  29 F29           -7.1544    -2.0162     3.2063 F       
  30 F30           -8.6244    -2.0467     1.4577 F       
  31 N31           -9.2235     2.0716    -3.1170 N.pl3   
  32 F32            3.6620    -1.6147    -1.7328 F       
  33 H33            0.9554     2.7351    -1.6246 H       
  34 H34            1.2325    -1.6147     0.4826 H       
  35 H35           -2.4196     0.4591     0.3781 H       
  36 H36            4.4012    -0.0945    -0.5906 H       
  37 H37            3.6476    -1.4390     0.2997 H       
  38 H38           -4.9129     0.3726    -0.1396 H       
  39 H39           -4.7664     5.2471     0.5881 H       
  40 H40           -2.6693     3.9689     0.4253 H       
  41 H41           -6.2270    -0.3213    -0.5792 H       
  42 H42           -9.2180    -0.5156     0.1228 H       
  43 H43           -8.1946    -1.8879    -0.3712 H       
  44 H44           -7.8305     2.5938     1.7885 H       
  45 H45           -9.2310     1.7295     1.0951 H       
  46 H46           -5.9405    -0.1049     1.8403 H       
  47 H47           -9.6522     1.6182    -3.8596 H       
  48 H48           -9.2146     3.0409    -3.0804 H       
@<TRIPOS>BOND
   1    1    2 ar
   2    1    3 ar
   3    1    7 1
   4    2    4 ar
   5    3    6 ar
   6    3   33 1
   7    4    5 ar
   8    4   34 1
   9    5    6 ar
  10    5   10 1
  11    7    8 2
  12    7    9 am
  13    9   11 1
  14    9   35 1
  15   10   32 1
  16   10   36 1
  17   10   37 1
  18   11   12 ar
  19   11   16 ar
  20   12   13 ar
  21   12   38 1
  22   13   14 ar
  23   13   21 1
  24   14   15 ar
  25   14   17 1
  26   15   16 ar
  27   15   39 1
  28   16   40 1
  29   18   19 1
  30   18   23 1
  31   19   20 2
  32   19   31 1
  33   20   21 1
  34   21   25 1
  35   21   22 1
  36   22   23 1
  37   22   26 1
  38   22   41 1
  39   23   42 1
  40   23   43 1
  41   24   25 1
  42   24   26 1
  43   25   44 1
  44   25   45 1
  45   26   27 1
  46   26   46 1
  47   27   28 1
  48   27   29 1
  49   27   30 1
  50   31   47 1
  51   31   48 1

#	End of record

