#	Name: ASD01883838
#	Creating user name:	WinNT
#	Creation time:	15. 06. 2019 19:47

#	Modifying user name:	WinNT
#	Modification time:	15. 06. 2019 19:47

#	Program:	/corina/corina34_cracker 3.40 0067  02.08.2006

@<TRIPOS>MOLECULE
ASD01883838
  43   46    0    0    0
SMALL
NO_CHARGES


@<TRIPOS>ATOM
   1 C1            -0.0167     1.3770     0.0096 C.ar    
   2 C2             0.0021    -0.0041     0.0020 C.ar    
   3 C3             1.2075    -0.6824    -0.0131 C.ar    
   4 C4             2.4012     0.0163    -0.0208 C.ar    
   5 C5             2.3966     1.3975    -0.0129 C.ar    
   6 C6             1.1841     2.0880     0.0020 C.ar    
   7 C7             1.1715     3.5695     0.0096 C.2     
   8 C8             1.1541     4.2907    -1.2092 C.2     
   9 C9             1.1427     5.6368    -1.2000 C.2     
  10 C10            1.1585     5.6663     1.1811 C.2     
  11 C11            1.1710     4.2613     1.2061 C.2     
  12 N12            1.1500     7.7592     1.5866 N.2     
  13 N13            1.1545     6.5919     2.1280 N.2     
  14 N14            1.1477     6.3283    -0.0229 N.pl3   
  15 C15            1.1392     7.6551     0.2828 C.2     
  16 C16            1.1203     8.7959    -0.7017 C.3     
  17 C17           -0.0770     9.5924    -0.4773 C.3     
  18 C18            2.4138     9.6198    -0.5365 C.3     
  19 C19            2.6438    10.4069    -1.7981 C.3     
  20 C20           -0.2118    10.7488    -1.4889 C.3     
  21 C21            0.6792    11.8777    -1.0463 C.3     
  22 C22            2.0654    11.8326    -1.7173 C.3     
  23 Cl23          -1.5306     2.2264     0.0214 Cl      
  24 Cl24           3.8960     2.2725    -0.0213 Cl      
  25 H25           -0.9265    -0.5556     0.0083 H       
  26 H26            1.2166    -1.7623    -0.0187 H       
  27 H27            3.3390    -0.5193    -0.0326 H       
  28 H28            1.1502     3.7589    -2.1491 H       
  29 H29            1.1297     6.1764    -2.1355 H       
  30 H30            1.1797     3.7299     2.1463 H       
  31 H31            1.0893     8.3890    -1.7124 H       
  32 H32           -0.9512     8.9467    -0.5606 H       
  33 H33           -0.0414    10.0070     0.5302 H       
  34 H34            2.3080    10.3023     0.3067 H       
  35 H35            3.2557     8.9490    -0.3648 H       
  36 H36            3.7160    10.4713    -1.9831 H       
  37 H37            2.1751     9.8829    -2.6311 H       
  38 H38            0.0936    10.4075    -2.4780 H       
  39 H39           -1.2467    11.0896    -1.5196 H       
  40 H40            0.1984    12.8242    -1.2935 H       
  41 H41            0.8086    11.8218     0.0345 H       
  42 H42            2.7521    12.4589    -1.1478 H       
  43 H43            1.9806    12.2354    -2.7266 H       
@<TRIPOS>BOND
   1    1    2 ar
   2    1    6 ar
   3    1   23 1
   4    2    3 ar
   5    2   25 1
   6    3    4 ar
   7    3   26 1
   8    4    5 ar
   9    4   27 1
  10    5    6 ar
  11    5   24 1
  12    6    7 1
  13    7    8 1
  14    7   11 2
  15    8    9 2
  16    8   28 1
  17    9   14 1
  18    9   29 1
  19   10   11 1
  20   10   14 1
  21   10   13 2
  22   11   30 1
  23   12   13 1
  24   12   15 2
  25   14   15 1
  26   15   16 1
  27   16   17 1
  28   16   18 1
  29   16   31 1
  30   17   20 1
  31   17   32 1
  32   17   33 1
  33   18   19 1
  34   18   34 1
  35   18   35 1
  36   19   22 1
  37   19   36 1
  38   19   37 1
  39   20   21 1
  40   20   38 1
  41   20   39 1
  42   21   22 1
  43   21   40 1
  44   21   41 1
  45   22   42 1
  46   22   43 1

#	End of record

