#	Name: ASD09740370
#	Creating user name:	WinNT
#	Creation time:	15. 06. 2019 21:23

#	Modifying user name:	WinNT
#	Modification time:	15. 06. 2019 21:23

#	Program:	/corina/corina34_cracker 3.40 0067  02.08.2006

@<TRIPOS>MOLECULE
ASD09740370
  43   46    0    0    0
SMALL
NO_CHARGES


@<TRIPOS>ATOM
   1 S1             0.0544     1.7717     0.1194 S.3     
   2 C2            -0.0302     0.0642     0.1679 C.2     
   3 C3             1.7929     1.6929    -0.1459 C.2     
   4 N4             2.1656     0.4442    -0.1772 N.2     
   5 C5             1.2078    -0.4452    -0.0116 C.2     
   6 C6             1.4710    -1.9054    -0.0212 C.ar    
   7 C7             2.6846     2.8535    -0.3077 C.2     
   8 C8             0.6165    -2.7655    -0.7082 C.ar    
   9 C9             0.8664    -4.1228    -0.7142 C.ar    
  10 C10            1.9626    -4.6298    -0.0399 C.ar    
  11 C11            2.8141    -3.7807     0.6436 C.ar    
  12 C12            2.5768    -2.4211     0.6519 C.ar    
  13 C13           -1.2854    -0.7430     0.3779 C.3     
  14 N14            2.3327     4.1272    -0.2805 N.2     
  15 C15            3.4736     4.8205    -0.4708 C.2     
  16 N16            4.4430     3.9511    -0.6016 N.2     
  17 O17            4.0128     2.8213    -0.5056 O.3     
  18 C18            3.6056     6.2982    -0.5228 C.ar    
  19 C19            4.8540     6.8818    -0.7273 C.ar    
  20 C20            4.9710     8.2563    -0.7747 C.ar    
  21 C21            3.8517     9.0539    -0.6197 C.ar    
  22 C22            2.6099     8.4797    -0.4164 C.ar    
  23 C23            2.4806     7.1062    -0.3730 C.ar    
  24 C24            3.9858    10.5541    -0.6719 C.3     
  25 C25            3.8123    11.0316    -2.1151 C.3     
  26 O26            3.9394    12.4541    -2.1647 O.3     
  27 H27           -0.2399    -2.3707    -1.2347 H       
  28 H28            0.2046    -4.7904    -1.2460 H       
  29 H29            2.1542    -5.6927    -0.0469 H       
  30 H30            3.6683    -4.1819     1.1687 H       
  31 H31            3.2423    -1.7590     1.1859 H       
  32 H32           -2.1180    -0.0718     0.5887 H       
  33 H33           -1.5018    -1.3189    -0.5219 H       
  34 H34           -1.1442    -1.4221     1.2187 H       
  35 H35            5.7286     6.2599    -0.8481 H       
  36 H36            5.9384     8.7097    -0.9328 H       
  37 H37            1.7392     9.1072    -0.2956 H       
  38 H38            1.5105     6.6589    -0.2146 H       
  39 H39            3.2200    11.0094    -0.0440 H       
  40 H40            4.9722    10.8435    -0.3095 H       
  41 H41            4.5781    10.5763    -2.7430 H       
  42 H42            2.8259    10.7422    -2.4775 H       
  43 H43            3.8403    12.8272    -3.0513 H       
@<TRIPOS>BOND
   1    1    2 1
   2    1    3 1
   3    2   13 1
   4    2    5 2
   5    3    4 2
   6    3    7 1
   7    4    5 1
   8    5    6 1
   9    6    8 ar
  10    6   12 ar
  11    7   14 2
  12    7   17 1
  13    8    9 ar
  14    8   27 1
  15    9   10 ar
  16    9   28 1
  17   10   11 ar
  18   10   29 1
  19   11   12 ar
  20   11   30 1
  21   12   31 1
  22   13   32 1
  23   13   33 1
  24   13   34 1
  25   14   15 1
  26   15   16 2
  27   15   18 1
  28   16   17 1
  29   18   19 ar
  30   18   23 ar
  31   19   20 ar
  32   19   35 1
  33   20   21 ar
  34   20   36 1
  35   21   22 ar
  36   21   24 1
  37   22   23 ar
  38   22   37 1
  39   23   38 1
  40   24   25 1
  41   24   39 1
  42   24   40 1
  43   25   26 1
  44   25   41 1
  45   25   42 1
  46   26   43 1

#	End of record

