#	Name: ASD01840051
#	Creating user name:	WinNT
#	Creation time:	15. 06. 2019 19:37

#	Modifying user name:	WinNT
#	Modification time:	15. 06. 2019 19:37

#	Program:	/corina/corina34_cracker 3.40 0067  02.08.2006

@<TRIPOS>MOLECULE
ASD01840051
  38   40    0    0    0
SMALL
NO_CHARGES


@<TRIPOS>ATOM
   1 C1            -0.0121     1.3266     0.0416 C.ar    
   2 N2             0.2897     0.4798     1.0147 N.ar    
   3 C3             1.4298    -0.1871     1.0120 C.ar    
   4 N4             2.3182    -0.0496     0.0552 N.ar    
   5 C5             0.9130     1.5129    -1.0174 C.ar    
   6 C6             0.8413     2.3624    -2.1913 C.2     
   7 C7             2.1038     0.7828    -0.9715 C.ar    
   8 S8             3.0880     1.1707    -2.3749 S.3     
   9 C9             1.8902     2.2951    -2.9880 C.2     
  10 C10           -0.3404     3.2524    -2.4785 C.3     
  11 C11            2.0402     3.0841    -4.2632 C.3     
  12 N12           -1.2125     2.0137     0.0552 N.3     
  13 C13           -2.3489     1.0898    -0.0512 C.3     
  14 C14           -3.6476     1.8892    -0.1796 C.3     
  15 C15           -3.8107     2.7892     1.0484 C.3     
  16 C16           -2.5913     3.7081     1.1635 C.3     
  17 C17           -1.3232     2.8560     1.2530 C.3     
  18 C18           -5.0573     3.6229     0.8997 C.2     
  19 O19           -5.7482     3.5094    -0.0905 O.2     
  20 N20           -5.4043     4.4947     1.8672 N.am    
  21 H21            1.6383    -0.8679     1.8241 H       
  22 H22           -0.2240     4.1948    -1.9433 H       
  23 H23           -0.3968     3.4472    -3.5494 H       
  24 H24           -1.2552     2.7588    -2.1503 H       
  25 H25            2.5235     4.0367    -4.0463 H       
  26 H26            2.6491     2.5203    -4.9698 H       
  27 H27            1.0564     3.2660    -4.6957 H       
  28 H28           -2.2226     0.4585    -0.9307 H       
  29 H29           -2.3937     0.4650     0.8408 H       
  30 H30           -3.6092     2.5039    -1.0788 H       
  31 H31           -4.4924     1.2033    -0.2428 H       
  32 H32           -3.8883     2.1729     1.9441 H       
  33 H33           -2.5362     4.3515     0.2854 H       
  34 H34           -2.6814     4.3217     2.0599 H       
  35 H35           -1.3728     2.2229     2.1388 H       
  36 H36           -0.4520     3.5075     1.3207 H       
  37 H37           -4.8517     4.5855     2.6592 H       
  38 H38           -6.2066     5.0313     1.7715 H       
@<TRIPOS>BOND
   1    1    2 ar
   2    1    5 ar
   3    1   12 1
   4    2    3 ar
   5    3    4 ar
   6    3   21 1
   7    4    7 ar
   8    5    7 ar
   9    5    6 1
  10    6    9 2
  11    6   10 1
  12    7    8 1
  13    8    9 1
  14    9   11 1
  15   10   22 1
  16   10   23 1
  17   10   24 1
  18   11   25 1
  19   11   26 1
  20   11   27 1
  21   12   13 1
  22   12   17 1
  23   13   14 1
  24   13   28 1
  25   13   29 1
  26   14   15 1
  27   14   30 1
  28   14   31 1
  29   15   16 1
  30   15   18 1
  31   15   32 1
  32   16   17 1
  33   16   33 1
  34   16   34 1
  35   17   35 1
  36   17   36 1
  37   18   19 2
  38   18   20 am
  39   20   37 1
  40   20   38 1

#	End of record

