#	Name: ASD01812765
#	Creating user name:	WinNT
#	Creation time:	15. 06. 2019 19:29

#	Modifying user name:	WinNT
#	Modification time:	15. 06. 2019 19:29

#	Program:	/corina/corina34_cracker 3.40 0067  02.08.2006

@<TRIPOS>MOLECULE
ASD01812765
  57   62    0    0    0
SMALL
NO_CHARGES


@<TRIPOS>ATOM
   1 N1            -0.0158     1.3147     0.0093 N.ar    
   2 C2             0.0021    -0.0041     0.0020 C.ar    
   3 C3             1.1989    -0.7033    -0.0127 C.ar    
   4 C4             2.3829    -0.0013    -0.0202 C.ar    
   5 C5             2.3448     1.3978    -0.0128 C.ar    
   6 C6             1.0955     2.0332     0.0025 C.ar    
   7 C7             3.8373    -0.3889    -0.0363 C.3     
   8 N8             4.5955     0.8684    -0.0373 N.am    
   9 C9             3.7280     1.8961    -0.0237 C.2     
  10 C10            6.0558     0.9844    -0.0504 C.3     
  11 C11            6.5432     1.0311    -1.4757 C.ar    
  12 C12            6.6711     2.2484    -2.1205 C.ar    
  13 C13            7.1168     2.2977    -3.4253 C.ar    
  14 C14            7.4388     1.1168    -4.0944 C.ar    
  15 C15            7.3078    -0.1074    -3.4388 C.ar    
  16 C16            6.8663    -0.1432    -2.1320 C.ar    
  17 O17            1.0255     3.3856     0.0100 O.3     
  18 O18            4.0429     3.0706    -0.0212 O.2     
  19 C19           -0.2795     3.9677     0.0251 C.3     
  20 C20            7.9174     1.1626    -5.4953 C.2     
  21 C21           -0.1576     5.4928     0.0317 C.3     
  22 C22           -1.5627     6.1448    -0.0068 C.3     
  23 O23            0.4301     5.9407     1.2635 O.3     
  24 C24           -0.1730     7.1736     1.6734 C.3     
  25 C25           -1.2652     7.5248     0.6404 C.3     
  26 C26            9.0550     0.5247    -6.0071 C.2     
  27 C27            7.3155     1.8455    -6.5562 C.2     
  28 N28            8.0255     1.6526    -7.6422 N.2     
  29 N29            9.1171     0.8288    -7.3419 N.pl3   
  30 C30           10.0377    -0.2913    -5.4245 C.2     
  31 C31           11.0482    -0.7738    -6.2006 C.2     
  32 C32           11.0889    -0.4474    -7.5654 C.2     
  33 C33           10.1359     0.3399    -8.1081 C.2     
  34 H34           -0.9309    -0.5480     0.0080 H       
  35 H35            1.2023    -1.7833    -0.0178 H       
  36 H36            4.0797    -0.9721     0.8522 H       
  37 H37            4.0624    -0.9631    -0.9351 H       
  38 H38            6.3524     1.8979     0.4651 H       
  39 H39            6.4932     0.1235     0.4552 H       
  40 H40            6.4211     3.1620    -1.6015 H       
  41 H41            7.2159     3.2486    -3.9278 H       
  42 H42            7.5555    -1.0251    -3.9515 H       
  43 H43            6.7690    -1.0901    -1.6218 H       
  44 H44           -0.8289     3.6509    -0.8614 H       
  45 H45           -0.8123     3.6419     0.9185 H       
  46 H46            0.4398     5.8277    -0.8163 H       
  47 H47           -1.9146     6.2594    -1.0321 H       
  48 H48           -2.2760     5.5765     0.5902 H       
  49 H49           -0.6213     7.0559     2.6600 H       
  50 H50            0.5788     7.9624     1.6994 H       
  51 H51           -0.8858     8.2275    -0.1015 H       
  52 H52           -2.1526     7.9213     1.1337 H       
  53 H53            6.4132     2.4356    -6.4921 H       
  54 H54            9.9933    -0.5334    -4.3730 H       
  55 H55           11.8128    -1.4026    -5.7688 H       
  56 H56           11.8879    -0.8275    -8.1846 H       
  57 H57           10.1824     0.5892    -9.1579 H       
@<TRIPOS>BOND
   1    1    2 ar
   2    1    6 ar
   3    2    3 ar
   4    2   34 1
   5    3    4 ar
   6    3   35 1
   7    4    7 1
   8    4    5 ar
   9    5    6 ar
  10    5    9 1
  11    6   17 1
  12    7    8 1
  13    7   36 1
  14    7   37 1
  15    8    9 am
  16    8   10 1
  17    9   18 2
  18   10   11 1
  19   10   38 1
  20   10   39 1
  21   11   12 ar
  22   11   16 ar
  23   12   13 ar
  24   12   40 1
  25   13   14 ar
  26   13   41 1
  27   14   15 ar
  28   14   20 1
  29   15   16 ar
  30   15   42 1
  31   16   43 1
  32   17   19 1
  33   19   21 1
  34   19   44 1
  35   19   45 1
  36   20   27 1
  37   20   26 2
  38   21   23 1
  39   21   22 1
  40   21   46 1
  41   22   25 1
  42   22   47 1
  43   22   48 1
  44   23   24 1
  45   24   25 1
  46   24   49 1
  47   24   50 1
  48   25   51 1
  49   25   52 1
  50   26   30 1
  51   26   29 1
  52   27   28 2
  53   27   53 1
  54   28   29 1
  55   29   33 1
  56   30   31 2
  57   30   54 1
  58   31   32 1
  59   31   55 1
  60   32   33 2
  61   32   56 1
  62   33   57 1

#	End of record

