#	Name: ASD01885747
#	Creating user name:	WinNT
#	Creation time:	15. 06. 2019 19:50

#	Modifying user name:	WinNT
#	Modification time:	15. 06. 2019 19:50

#	Program:	/corina/corina34_cracker 3.40 0067  02.08.2006

@<TRIPOS>MOLECULE
ASD01885747
  63   66    0    0    0
SMALL
NO_CHARGES


@<TRIPOS>ATOM
   1 C1            -0.0160     1.3291     0.0093 C.ar    
   2 C2            -1.2522     2.0239     0.0189 C.ar    
   3 C3            -2.4598     1.2808     0.0210 C.ar    
   4 C4            -2.3703    -0.1044     0.0135 C.ar    
   5 C5            -1.1104    -0.7137     0.0043 C.ar    
   6 N6             0.0021    -0.0041     0.0020 N.ar    
   7 C7             1.1365     3.4282     0.0092 C.ar    
   8 C8            -0.0805     4.1063     0.0248 C.ar    
   9 C9            -1.2606     3.4245     0.0266 C.ar    
  10 C10           -3.7750     1.9611     0.0313 C.ar    
  11 C11           -1.0235    -2.1940    -0.0038 C.2     
  12 C12            2.4228     4.2133     0.0076 C.3     
  13 C13            1.1823     2.0683     0.0019 C.ar    
  14 N14            0.1812    -2.7982    -0.0132 N.am    
  15 O15           -2.0383    -2.8621    -0.0018 O.2     
  16 C16           -4.7577     1.5985    -0.8903 C.ar    
  17 C17           -5.9812     2.2347    -0.8763 C.ar    
  18 C18           -6.2354     3.2328     0.0512 C.ar    
  19 C19           -5.2623     3.5968     0.9685 C.ar    
  20 C20           -4.0376     2.9626     0.9663 C.ar    
  21 F21           -7.4355     3.8531     0.0609 F       
  22 N22            2.8509     4.4547     1.3920 N.3     
  23 C23            3.2103     3.1966     2.0586 C.3     
  24 C24            3.7872     3.4984     3.4436 C.3     
  25 C25            2.7454     4.2566     4.2709 C.3     
  26 C26            2.3525     5.5385     3.5315 C.3     
  27 C27            1.8173     5.1776     2.1439 C.3     
  28 N28            1.3139     6.2412     4.2888 N.pl3   
  29 C29            0.3262     5.6835     5.0103 C.2     
  30 N30           -0.3890     6.6467     5.5322 N.2     
  31 C31            0.1090     7.8277     5.1682 C.2     
  32 N32            1.1558     7.6315     4.4104 N.2     
  33 H33           -3.2662    -0.7075     0.0151 H       
  34 H34           -0.0888     5.1862     0.0355 H       
  35 H35           -2.1976     3.9615     0.0335 H       
  36 H36            3.1928     3.6481    -0.5175 H       
  37 H37            2.2656     5.1673    -0.4957 H       
  38 H38            2.1340     1.5579    -0.0092 H       
  39 H39            0.9913    -2.2648    -0.0147 H       
  40 H40            0.2380    -3.7665    -0.0184 H       
  41 H41           -4.5605     0.8212    -1.6137 H       
  42 H42           -6.7425     1.9551    -1.5896 H       
  43 H43           -5.4648     4.3756     1.6888 H       
  44 H44           -3.2799     3.2470     1.6815 H       
  45 H45            2.3217     2.5742     2.1631 H       
  46 H46            3.9548     2.6694     1.4621 H       
  47 H47            4.0394     2.5636     3.9443 H       
  48 H48            4.6838     4.1094     3.3392 H       
  49 H49            1.8637     3.6306     4.4085 H       
  50 H50            3.1676     4.5116     5.2430 H       
  51 H51            3.2266     6.1816     3.4284 H       
  52 H52            1.5500     6.0892     1.6094 H       
  53 H53            0.9351     4.5459     2.2480 H       
  54 H54            0.1529     4.6250     5.1364 H       
  55 H55           -0.2857     8.7909     5.4561 H       
  56 C56           10.6856    15.6980    11.4374 C.3     
  57 C57           10.7064    14.1682    11.4290 C.3     
  58 H58           11.7082    16.0753    11.4297 H       
  59 H59           10.1584    16.0591    10.5544 H       
  60 H60           10.1754    16.0495    12.3342 H       
  61 H61           11.2336    13.8071    12.3121 H       
  62 H62            9.6838    13.7909    11.4368 H       
  63 H63           11.2166    13.8167    10.5322 H       
@<TRIPOS>BOND
   1    1    6 ar
   2    1   13 ar
   3    1    2 ar
   4    2    3 ar
   5    2    9 ar
   6    3   10 1
   7    3    4 ar
   8    4    5 ar
   9    4   33 1
  10    5   11 1
  11    5    6 ar
  12    7   12 1
  13    7    8 ar
  14    7   13 ar
  15    8    9 ar
  16    8   34 1
  17    9   35 1
  18   10   16 ar
  19   10   20 ar
  20   11   14 am
  21   11   15 2
  22   12   22 1
  23   12   36 1
  24   12   37 1
  25   13   38 1
  26   14   39 1
  27   14   40 1
  28   16   17 ar
  29   16   41 1
  30   17   18 ar
  31   17   42 1
  32   18   19 ar
  33   18   21 1
  34   19   20 ar
  35   19   43 1
  36   20   44 1
  37   22   23 1
  38   22   27 1
  39   23   24 1
  40   23   45 1
  41   23   46 1
  42   24   25 1
  43   24   47 1
  44   24   48 1
  45   25   26 1
  46   25   49 1
  47   25   50 1
  48   26   27 1
  49   26   28 1
  50   26   51 1
  51   27   52 1
  52   27   53 1
  53   28   29 1
  54   28   32 1
  55   29   30 2
  56   29   54 1
  57   30   31 1
  58   31   32 2
  59   31   55 1
  60   56   57 1
  61   56   58 1
  62   56   59 1
  63   56   60 1
  64   57   61 1
  65   57   62 1
  66   57   63 1

#	End of record

