#	Name: ASD02039438
#	Creating user name:	WinNT
#	Creation time:	15. 06. 2019 20:18

#	Modifying user name:	WinNT
#	Modification time:	15. 06. 2019 20:18

#	Program:	/corina/corina34_cracker 3.40 0067  02.08.2006

@<TRIPOS>MOLECULE
ASD02039438
  52   55    0    0    0
SMALL
NO_CHARGES


@<TRIPOS>ATOM
   1 C1             0.1499     1.1860     0.0762 C.ar    
   2 C2             0.4316    -0.1674     0.1947 C.ar    
   3 C3             1.2614     2.2017     0.0152 C.3     
   4 N4             1.7337     2.3264    -1.3660 N.am    
   5 C5             1.2463     3.3007    -2.1595 C.2     
   6 C6             0.1672     4.1771    -1.6718 C.2     
   7 C7            -0.4873     5.1299    -2.3962 C.2     
   8 N8            -0.3610     4.1796    -0.4212 N.2     
   9 C9            -1.2924     5.0869    -0.3595 C.2     
  10 N10           -1.3971     5.6964    -1.5690 N.pl3   
  11 O11            1.6973     3.4564    -3.2783 O.2     
  12 C12           -2.3270     6.7739    -1.9159 C.3     
  13 C13            2.7358     1.3920    -1.8847 C.3     
  14 C14           -0.6106    -1.0749     0.2478 C.ar    
  15 C15           -2.1744     0.6130     0.0635 C.ar    
  16 C16           -1.1750     1.5818     0.0096 C.ar    
  17 C17           -3.5990     1.0209    -0.0073 C.ar    
  18 C18           -3.9350     2.3679    -0.1329 C.ar    
  19 N19           -1.8630    -0.6709     0.1869 N.ar    
  20 C20           -4.6043     0.0587     0.0459 C.ar    
  21 C21           -5.9328     0.4460    -0.0206 C.ar    
  22 C22           -6.2589     1.7897    -0.1403 C.ar    
  23 C23           -5.2611     2.7449    -0.1984 C.ar    
  24 O24           -6.9168    -0.4900     0.0310 O.3     
  25 C25           -8.2641    -0.0196    -0.0428 C.3     
  26 C26            2.3153     0.7013    -3.1927 C.3     
  27 C27            3.7687     0.8801    -3.6623 C.3     
  28 C28            3.8517     2.0726    -2.6949 C.3     
  29 F29           -8.5143     0.8481     1.0257 F       
  30 F30           -8.4552     0.6605    -1.2504 F       
  31 H31            1.4550    -0.5089     0.2447 H       
  32 H32            0.8911     3.1668     0.3610 H       
  33 H33            2.0844     1.8786     0.6528 H       
  34 H34           -0.3128     5.3840    -3.4313 H       
  35 H35           -1.8881     5.3159     0.5118 H       
  36 H36           -1.8596     7.7371    -1.7112 H       
  37 H37           -2.5788     6.7099    -2.9745 H       
  38 H38           -3.2345     6.6765    -1.3200 H       
  39 H39            3.1042     0.7021    -1.1255 H       
  40 H40           -0.3948    -2.1291     0.3400 H       
  41 H41           -1.4300     2.6265    -0.0909 H       
  42 H42           -3.1578     3.1164    -0.1785 H       
  43 H43           -4.3490    -0.9866     0.1384 H       
  44 H44           -7.2951     2.0897    -0.1927 H       
  45 H45           -5.5201     3.7892    -0.2916 H       
  46 H46           -8.9481    -0.8667     0.0092 H       
  47 H47            2.0237    -0.3409    -3.0620 H       
  48 H48            1.5943     1.2735    -3.7764 H       
  49 H49            4.4209     0.0504    -3.3896 H       
  50 H50            3.8570     1.1620    -4.7115 H       
  51 H51            3.5507     3.0198    -3.1425 H       
  52 H52            4.8005     2.1376    -2.1623 H       
@<TRIPOS>BOND
   1    1    2 ar
   2    1    3 1
   3    1   16 ar
   4    2   14 ar
   5    2   31 1
   6    3    4 1
   7    3   32 1
   8    3   33 1
   9    4    5 am
  10    4   13 1
  11    5    6 1
  12    5   11 2
  13    6    7 2
  14    6    8 1
  15    7   10 1
  16    7   34 1
  17    8    9 2
  18    9   10 1
  19    9   35 1
  20   10   12 1
  21   12   36 1
  22   12   37 1
  23   12   38 1
  24   13   26 1
  25   13   28 1
  26   13   39 1
  27   14   19 ar
  28   14   40 1
  29   15   16 ar
  30   15   17 1
  31   15   19 ar
  32   16   41 1
  33   17   20 ar
  34   17   18 ar
  35   18   23 ar
  36   18   42 1
  37   20   21 ar
  38   20   43 1
  39   21   22 ar
  40   21   24 1
  41   22   23 ar
  42   22   44 1
  43   23   45 1
  44   24   25 1
  45   25   29 1
  46   25   30 1
  47   25   46 1
  48   26   27 1
  49   26   47 1
  50   26   48 1
  51   27   28 1
  52   27   49 1
  53   27   50 1
  54   28   51 1
  55   28   52 1

#	End of record

