#	Name: ASD03490101
#	Creating user name:	WinNT
#	Creation time:	15. 06. 2019 20:42

#	Modifying user name:	WinNT
#	Modification time:	15. 06. 2019 20:42

#	Program:	/corina/corina34_cracker 3.40 0067  02.08.2006

@<TRIPOS>MOLECULE
ASD03490101
  58   62    0    0    0
SMALL
NO_CHARGES


@<TRIPOS>ATOM
   1 C1             0.0134     1.3293    -0.0306 C.ar    
   2 C2            -1.1094     1.8632     0.5779 C.ar    
   3 C3            -1.0469     3.1094     1.1899 C.ar    
   4 C4             0.1424     3.8222     1.1925 C.ar    
   5 C5             1.2747     3.2848     0.5800 C.ar    
   6 C6             1.2037     2.0327    -0.0324 C.ar    
   7 C7             2.5459     4.0395     0.5791 C.2     
   8 O8             2.6056     5.1302     1.1128 O.2     
   9 N9             3.6386     3.5184    -0.0132 N.am    
  10 C10            4.8109     4.2783    -0.1126 C.ar    
  11 C11            6.0534     3.6541    -0.0169 C.ar    
  12 C12            7.2151     4.3866    -0.1129 C.ar    
  13 C13            7.1561     5.7626    -0.3068 C.ar    
  14 N14            8.1178     6.7420    -0.4384 N.pl3   
  15 C15            7.5199     7.9599    -0.6135 C.2     
  16 C16            6.1848     7.8206    -0.6024 C.2     
  17 C17            5.1676     8.9208    -0.7632 C.3     
  18 C18            4.7211     9.4081     0.6167 C.3     
  19 C19            3.7038    10.5083     0.4560 C.ar    
  20 C20            2.3500    10.2180     0.3827 C.ar    
  21 C21            1.4463    11.2532     0.2358 C.ar    
  22 N22            1.8587    12.5038     0.1649 N.ar    
  23 C23            3.1380    12.8168     0.2310 C.ar    
  24 C24            4.0990    11.8353     0.3836 C.ar    
  25 C25            5.9040     6.3965    -0.4039 C.ar    
  26 C26            4.7317     5.6443    -0.3110 C.ar    
  27 N27           -2.1829     3.6444     1.8023 N.3     
  28 C28           -3.3266     2.7285     1.6826 C.3     
  29 C29           -4.5304     3.3252     2.4166 C.3     
  30 O30           -4.8153     4.6201     1.8805 O.3     
  31 C31           -3.7232     5.5379     1.9811 C.3     
  32 C32           -2.5113     4.9636     1.2427 C.3     
  33 F33           -0.0525     0.1151    -0.6193 F       
  34 H34           -2.0368     1.3099     0.5767 H       
  35 H35            0.1919     4.7910     1.6671 H       
  36 H36            2.0782     1.6134    -0.5076 H       
  37 H37            3.6131     2.6170    -0.3707 H       
  38 H38            6.1054     2.5860     0.1344 H       
  39 H39            8.1726     3.8927    -0.0373 H       
  40 H40            9.0754     6.5900    -0.4104 H       
  41 H41            8.0445     8.8952    -0.7416 H       
  42 H42            5.6123     9.7491    -1.3147 H       
  43 H43            4.3052     8.5410    -1.3110 H       
  44 H44            4.2763     8.5798     1.1682 H       
  45 H45            5.5835     9.7879     1.1645 H       
  46 H46            2.0061     9.1958     0.4395 H       
  47 H47            0.3900    11.0355     0.1779 H       
  48 H48            3.4380    13.8524     0.1690 H       
  49 H49            5.1449    12.0983     0.4417 H       
  50 H50            3.7687     6.1270    -0.3893 H       
  51 H51           -3.5739     2.5906     0.6300 H       
  52 H52           -3.0703     1.7663     2.1260 H       
  53 H53           -5.3964     2.6770     2.2824 H       
  54 H54           -4.3020     3.4132     3.4788 H       
  55 H55           -4.0054     6.4901     1.5320 H       
  56 H56           -3.4713     5.6903     3.0306 H       
  57 H57           -1.6598     5.6330     1.3650 H       
  58 H58           -2.7455     4.8615     0.1831 H       
@<TRIPOS>BOND
   1    1    2 ar
   2    1    6 ar
   3    1   33 1
   4    2    3 ar
   5    2   34 1
   6    3    4 ar
   7    3   27 1
   8    4    5 ar
   9    4   35 1
  10    5    6 ar
  11    5    7 1
  12    6   36 1
  13    7    8 2
  14    7    9 am
  15    9   10 1
  16    9   37 1
  17   10   11 ar
  18   10   26 ar
  19   11   12 ar
  20   11   38 1
  21   12   13 ar
  22   12   39 1
  23   13   14 1
  24   13   25 ar
  25   14   15 1
  26   14   40 1
  27   15   16 2
  28   15   41 1
  29   16   17 1
  30   16   25 1
  31   17   18 1
  32   17   42 1
  33   17   43 1
  34   18   19 1
  35   18   44 1
  36   18   45 1
  37   19   20 ar
  38   19   24 ar
  39   20   21 ar
  40   20   46 1
  41   21   22 ar
  42   21   47 1
  43   22   23 ar
  44   23   24 ar
  45   23   48 1
  46   24   49 1
  47   25   26 ar
  48   26   50 1
  49   27   28 1
  50   27   32 1
  51   28   29 1
  52   28   51 1
  53   28   52 1
  54   29   30 1
  55   29   53 1
  56   29   54 1
  57   30   31 1
  58   31   32 1
  59   31   55 1
  60   31   56 1
  61   32   57 1
  62   32   58 1

#	End of record

