#	Name: ASD03331869
#	Creating user name:	WinNT
#	Creation time:	15. 06. 2019 20:40

#	Modifying user name:	WinNT
#	Modification time:	15. 06. 2019 20:40

#	Program:	/corina/corina34_cracker 3.40 0067  02.08.2006

@<TRIPOS>MOLECULE
ASD03331869
  49   52    0    0    0
SMALL
NO_CHARGES


@<TRIPOS>ATOM
   1 C1             8.4010    -0.3403     1.1486 C.ar    
   2 C2             8.9013     0.0951     2.3669 C.ar    
   3 C3             8.3588     1.2150     2.9799 C.ar    
   4 C4             7.3202     1.8972     2.3775 C.ar    
   5 C5             6.8192     1.4622     1.1579 C.ar    
   6 C6             7.3627     0.3413     0.5449 C.ar    
   7 N7             5.7652     2.1541     0.5461 N.am    
   8 C8             5.6912     3.4960     0.6475 C.2     
   9 N9             4.7309     4.1699    -0.0159 N.am    
  10 O10            6.4908     4.0986     1.3374 O.2     
  11 C11            4.5934     5.5510     0.1646 C.ar    
  12 C12            3.1906     7.4936     0.3374 C.ar    
  13 C13            3.3306     6.1301     0.1591 C.ar    
  14 C14            5.7172     6.3409     0.3546 C.ar    
  15 C15            5.5754     7.7145     0.5342 C.ar    
  16 C16            4.3045     8.2877     0.5219 C.ar    
  17 C17            6.7730     8.5653     0.7384 C.ar    
  18 N18            7.9729     8.0013     0.7473 N.ar    
  19 C19            9.0651     8.7278     0.9263 C.ar    
  20 C20            8.9472    10.0932     1.1060 C.ar    
  21 C21            7.6702    10.6595     1.0918 C.ar    
  22 N22            6.6175     9.8715     0.9021 N.ar    
  23 N23            7.5043    12.0237     1.2684 N.3     
  24 C24            6.0779    12.3936     1.2164 C.3     
  25 C25            5.7440    13.1146     2.5393 C.3     
  26 C26            7.1301    13.6154     3.0239 C.3     
  27 C27            8.0568    12.4608     2.5682 C.3     
  28 O28            9.9237    -0.5764     2.9608 O.3     
  29 H29            8.8265    -1.2098     0.6699 H       
  30 H30            8.7486     1.5532     3.9286 H       
  31 H31            6.8974     2.7687     2.8552 H       
  32 H32            6.9735     0.0024    -0.4038 H       
  33 H33            5.0889     1.6671     0.0497 H       
  34 H34            4.1350     3.6978    -0.6184 H       
  35 H35            2.2068     7.9391     0.3320 H       
  36 H36            2.4559     5.5133     0.0147 H       
  37 H37            6.6995     5.8921     0.3636 H       
  38 H38            4.1913     9.3527     0.6606 H       
  39 H39           10.0378     8.2586     0.9321 H       
  40 H40            9.8225    10.7082     1.2543 H       
  41 H41            5.8987    13.0621     0.3743 H       
  42 H42            5.4657    11.4972     1.1178 H       
  43 H43            5.0715    13.9539     2.3617 H       
  44 H44            5.3124    12.4191     3.2590 H       
  45 H45            7.4009    14.5503     2.5331 H       
  46 H46            7.1482    13.7259     4.1081 H       
  47 H47            8.0259    11.6429     3.2880 H       
  48 H48            9.0784    12.8203     2.4447 H       
  49 H49           10.8017    -0.2578     2.7101 H       
@<TRIPOS>BOND
   1    1    2 ar
   2    1    6 ar
   3    1   29 1
   4    2    3 ar
   5    2   28 1
   6    3    4 ar
   7    3   30 1
   8    4    5 ar
   9    4   31 1
  10    5    6 ar
  11    5    7 1
  12    6   32 1
  13    7    8 am
  14    7   33 1
  15    8    9 am
  16    8   10 2
  17    9   11 1
  18    9   34 1
  19   11   14 ar
  20   11   13 ar
  21   12   13 ar
  22   12   16 ar
  23   12   35 1
  24   13   36 1
  25   14   15 ar
  26   14   37 1
  27   15   16 ar
  28   15   17 1
  29   16   38 1
  30   17   18 ar
  31   17   22 ar
  32   18   19 ar
  33   19   20 ar
  34   19   39 1
  35   20   21 ar
  36   20   40 1
  37   21   22 ar
  38   21   23 1
  39   23   24 1
  40   23   27 1
  41   24   25 1
  42   24   41 1
  43   24   42 1
  44   25   26 1
  45   25   43 1
  46   25   44 1
  47   26   27 1
  48   26   45 1
  49   26   46 1
  50   27   47 1
  51   27   48 1
  52   28   49 1

#	End of record

