#	Name: ASD01918564
#	Creating user name:	WinNT
#	Creation time:	15. 06. 2019 20:11

#	Modifying user name:	WinNT
#	Modification time:	15. 06. 2019 20:11

#	Program:	/corina/corina34_cracker 3.40 0067  02.08.2006

@<TRIPOS>MOLECULE
ASD01918564
  47   51    0    0    0
SMALL
NO_CHARGES


@<TRIPOS>ATOM
   1 C1            -0.0191     1.4591     0.0031 C.3     
   2 N2             0.0214    -0.0059     0.0190 N.am    
   3 C3             0.9452    -0.7486    -0.8697 C.3     
   4 C4             2.3151    -0.1412    -0.6257 C.3     
   5 C5             2.1944     1.3549    -1.0496 C.3     
   6 C6             1.4023     2.0539     0.0324 C.3     
   7 O7             3.3879    -0.5169    -1.4817 O.3     
   8 C8             4.2147     0.5685    -1.4939 C.2     
   9 N9             3.5974     1.6878    -1.2310 N.2     
  10 C10            5.6917     0.4831    -1.7808 C.3     
  11 O11            6.2658     1.7901    -1.7161 O.3     
  12 C12            7.6004     1.8901    -1.9521 C.ar    
  13 C13            8.2234     3.1288    -1.9055 C.ar    
  14 C14            9.5801     3.2278    -2.1458 C.ar    
  15 C15           10.3172     2.0936    -2.4325 C.ar    
  16 C16            9.6986     0.8580    -2.4799 C.ar    
  17 C17            8.3432     0.7529    -2.2343 C.ar    
  18 C18           -0.7918    -0.6854     0.8517 C.2     
  19 O19           -1.4680    -0.0855     1.6651 O.2     
  20 C20           -0.8614    -2.1561     0.7765 C.2     
  21 C21           -1.5894    -3.0511     1.6842 C.ar    
  22 C22           -1.3377    -4.3440     1.1829 C.ar    
  23 N23           -0.5354    -4.1708     0.0872 N.pl3   
  24 N24           -0.2884    -2.9287    -0.1208 N.2     
  25 C25           -2.3884    -2.8929     2.8141 C.ar    
  26 C26           -2.9055    -4.0204     3.4013 C.ar    
  27 C27           -2.6208    -5.2659     2.8596 C.ar    
  28 N28           -1.8639    -5.3979     1.7914 N.ar    
  29 H29           -0.5279     1.7929    -0.9013 H       
  30 H30           -0.5721     1.8110     0.8740 H       
  31 H31            0.9500    -1.8070    -0.6092 H       
  32 H32            0.6540    -0.6165    -1.9118 H       
  33 H33            2.5959    -0.2300     0.4237 H       
  34 H34            1.6663     1.4290    -2.0003 H       
  35 H35            1.3623     3.1245    -0.1684 H       
  36 H36            1.8609     1.8735     1.0047 H       
  37 H37            6.1688    -0.1603    -1.0415 H       
  38 H38            5.8449     0.0678    -2.7768 H       
  39 H39            7.6480     4.0150    -1.6820 H       
  40 H40           10.0655     4.1919    -2.1100 H       
  41 H41           11.3778     2.1731    -2.6200 H       
  42 H42           10.2764    -0.0264    -2.7047 H       
  43 H43            7.8605    -0.2125    -2.2714 H       
  44 H44           -0.1993    -4.8948    -0.4641 H       
  45 H45           -2.5946    -1.9121     3.2163 H       
  46 H46           -3.5293    -3.9390     4.2792 H       
  47 H47           -3.0305    -6.1492     3.3267 H       
@<TRIPOS>BOND
   1    1    2 1
   2    1    6 1
   3    1   29 1
   4    1   30 1
   5    2    3 1
   6    2   18 am
   7    3    4 1
   8    3   31 1
   9    3   32 1
  10    4    5 1
  11    4    7 1
  12    4   33 1
  13    5    6 1
  14    5    9 1
  15    5   34 1
  16    6   35 1
  17    6   36 1
  18    7    8 1
  19    8    9 2
  20    8   10 1
  21   10   11 1
  22   10   37 1
  23   10   38 1
  24   11   12 1
  25   12   13 ar
  26   12   17 ar
  27   13   14 ar
  28   13   39 1
  29   14   15 ar
  30   14   40 1
  31   15   16 ar
  32   15   41 1
  33   16   17 ar
  34   16   42 1
  35   17   43 1
  36   18   19 2
  37   18   20 1
  38   20   21 1
  39   20   24 2
  40   21   22 ar
  41   21   25 ar
  42   22   23 1
  43   22   28 ar
  44   23   24 1
  45   23   44 1
  46   25   26 ar
  47   25   45 1
  48   26   27 ar
  49   26   46 1
  50   27   28 ar
  51   27   47 1

#	End of record

