#	Name: ASD01000037
#	Creating user name:	WinNT
#	Creation time:	15. 06. 2019 18:54

#	Modifying user name:	WinNT
#	Modification time:	15. 06. 2019 18:54

#	Program:	/corina/corina34_cracker 3.40 0067  02.08.2006

@<TRIPOS>MOLECULE
ASD01000037
  39   41    0    0    0
SMALL
NO_CHARGES


@<TRIPOS>ATOM
   1 C1             0.0651     1.4997     0.1548 C.3     
   2 C2             4.4572    -3.5487    -0.0261 C.ar    
   3 C3             3.3295    -3.0381    -0.6518 C.ar    
   4 C4             2.2033    -2.7412     0.0915 C.ar    
   5 C5             2.1998    -2.9526     1.4577 C.ar    
   6 C6             3.3230    -3.4611     2.0839 C.ar    
   7 C7             4.4494    -3.7650     1.3444 C.ar    
   8 C8             0.9779    -2.1859    -0.5875 C.3     
   9 N9            -0.2050    -2.8169     0.0226 N.am    
  10 C10            1.0546    -0.6742    -0.5274 C.2     
  11 C11            0.0427    -0.0065     0.0725 C.2     
  12 N12           -1.0125    -0.6872     0.6104 N.am    
  13 C13           -1.1320    -2.0189     0.5883 C.2     
  14 C14            2.1542    -0.0114    -1.0835 C.2     
  15 S15           -2.5123    -2.7357     1.3038 S.2     
  16 O16            3.0337    -0.6540    -1.6220 O.2     
  17 O17            5.5662    -3.8415    -0.7550 O.3     
  18 C18            2.2602     1.4905    -1.0210 C.3     
  19 C19            1.5136     1.9891     0.2206 C.3     
  20 C20           -1.7657     0.2508     2.7398 C.3     
  21 C21           -2.0775     0.0887     1.2507 C.3     
  22 H22           -0.4198     1.9186    -0.7270 H       
  23 H23           -0.4679     1.8223     1.0492 H       
  24 H24            3.3318    -2.8724    -1.7190 H       
  25 H25            1.3185    -2.7199     2.0370 H       
  26 H26            3.3181    -3.6247     3.1514 H       
  27 H27            5.3262    -4.1625     1.8339 H       
  28 H28            1.0143    -2.4826    -1.6358 H       
  29 H29           -0.3138    -3.7807     0.0173 H       
  30 H30            6.1879    -3.1055    -0.8382 H       
  31 H31            3.3092     1.7802    -0.9583 H       
  32 H32            1.8121     1.9256    -1.9143 H       
  33 H33            1.5304     3.0787     0.2440 H       
  34 H34            1.9919     1.5950     1.1173 H       
  35 H35           -1.7013    -0.7321     3.2066 H       
  36 H36           -0.8156     0.7719     2.8575 H       
  37 H37           -2.5581     0.8281     3.2162 H       
  38 H38           -2.1419     1.0716     0.7839 H       
  39 H39           -3.0277    -0.4323     1.1331 H       
@<TRIPOS>BOND
   1    1   11 1
   2    1   19 1
   3    1   22 1
   4    1   23 1
   5    2    3 ar
   6    2   17 1
   7    2    7 ar
   8    3    4 ar
   9    3   24 1
  10    4    5 ar
  11    4    8 1
  12    5    6 ar
  13    5   25 1
  14    6    7 ar
  15    6   26 1
  16    7   27 1
  17    8    9 1
  18    8   10 1
  19    8   28 1
  20    9   13 am
  21    9   29 1
  22   10   11 2
  23   10   14 1
  24   11   12 1
  25   12   21 1
  26   12   13 am
  27   13   15 2
  28   14   16 2
  29   14   18 1
  30   17   30 1
  31   18   19 1
  32   18   31 1
  33   18   32 1
  34   19   33 1
  35   19   34 1
  36   20   21 1
  37   20   35 1
  38   20   36 1
  39   20   37 1
  40   21   38 1
  41   21   39 1

#	End of record

