#	Name: ASD03092446
#	Creating user name:	WinNT
#	Creation time:	15. 06. 2019 20:32

#	Modifying user name:	WinNT
#	Modification time:	15. 06. 2019 20:32

#	Program:	/corina/corina34_cracker 3.40 0067  02.08.2006

@<TRIPOS>MOLECULE
ASD03092446
  58   61    0    0    0
SMALL
NO_CHARGES


@<TRIPOS>ATOM
   1 O1             0.7424     1.4945     0.2834 O.3     
   2 C2             0.9353     0.1732     0.3436 C.2     
   3 N3             2.2174    -0.0745     0.3141 N.2     
   4 C4             2.8825     1.0824     0.2340 C.2     
   5 C5             1.9584     2.0847     0.2139 C.2     
   6 C6             2.2297     3.5243     0.1321 C.2     
   7 O7             3.3772     3.9249     0.0739 O.2     
   8 N8             1.2078     4.4031     0.1214 N.am    
   9 C9             4.3792     1.2483     0.1771 C.3     
  10 C10            1.4787     5.8405     0.0397 C.3     
  11 S11           -1.9181     7.8440    -0.6282 S.3     
  12 C12           -1.5726     7.5755     1.0243 C.2     
  13 N13           -0.4573     6.9214     1.1511 N.2     
  14 C14            0.1760     6.5982     0.0445 C.2     
  15 C15           -0.4396     7.0026    -1.0863 C.2     
  16 C16            0.5373     7.5742    -4.6672 C.ar    
  17 C17            0.0807     7.8279    -3.3920 C.ar    
  18 C18            0.0407     6.7789    -2.4638 C.ar    
  19 C19            0.4701     5.5116    -2.8801 C.ar    
  20 C20            0.9111     5.3482    -4.1754 C.ar    
  21 N21            0.9326     6.3644    -5.0179 N.ar    
  22 C22            1.3757     3.9907    -4.6365 C.3     
  23 C23            0.5797     8.6917    -5.6774 C.3     
  24 N24           -2.3667     7.9950     2.0761 N.3     
  25 C25           -3.5562     8.7069     1.5867 C.3     
  26 C26           -4.3741     9.2043     2.7816 C.3     
  27 O27           -4.7131     8.0936     3.6163 O.3     
  28 C28           -3.5781     7.3778     4.1111 C.3     
  29 C29           -2.7522     6.8619     2.9298 C.3     
  30 C30           -4.0500     6.1954     4.9597 C.3     
  31 C31           -5.6541     9.8761     2.2804 C.3     
  32 H32            0.1552    -0.5710     0.4067 H       
  33 H33            0.2931     4.0838     0.1678 H       
  34 H34            4.7067     1.2369    -0.8625 H       
  35 H35            4.6573     2.1975     0.6352 H       
  36 H36            4.8563     0.4306     0.7173 H       
  37 H37            2.0799     6.1462     0.8960 H       
  38 H38            2.0212     6.0563    -0.8807 H       
  39 H39           -0.2409     8.8203    -3.1121 H       
  40 H40            0.4559     4.6759    -2.1962 H       
  41 H41            0.5305     3.4368    -5.0450 H       
  42 H42            2.1382     4.1098    -5.4063 H       
  43 H43            1.7945     3.4438    -3.7918 H       
  44 H44            1.5463     9.1928    -5.6246 H       
  45 H45            0.4366     8.2830    -6.6777 H       
  46 H46           -0.2130     9.4077    -5.4606 H       
  47 H47           -3.2471     9.5567     0.9782 H       
  48 H48           -4.1640     8.0302     0.9861 H       
  49 H49           -3.7850     9.9222     3.3523 H       
  50 H50           -2.9659     8.0426     4.7205 H       
  51 H51           -3.3471     6.1557     2.3506 H       
  52 H52           -1.8561     6.3649     3.3016 H       
  53 H53           -4.6605     5.5304     4.3487 H       
  54 H54           -3.1846     5.6502     5.3364 H       
  55 H55           -4.6412     6.5630     5.7984 H       
  56 H56           -6.2432     9.1567     1.7115 H       
  57 H57           -6.2359    10.2300     3.1315 H       
  58 H58           -5.3951    10.7201     1.6411 H       
@<TRIPOS>BOND
   1    1    2 1
   2    1    5 1
   3    2    3 2
   4    2   32 1
   5    3    4 1
   6    4    5 2
   7    4    9 1
   8    5    6 1
   9    6    7 2
  10    6    8 am
  11    8   10 1
  12    8   33 1
  13    9   34 1
  14    9   35 1
  15    9   36 1
  16   10   14 1
  17   10   37 1
  18   10   38 1
  19   11   12 1
  20   11   15 1
  21   12   13 2
  22   12   24 1
  23   13   14 1
  24   14   15 2
  25   15   18 1
  26   16   17 ar
  27   16   21 ar
  28   16   23 1
  29   17   18 ar
  30   17   39 1
  31   18   19 ar
  32   19   20 ar
  33   19   40 1
  34   20   21 ar
  35   20   22 1
  36   22   41 1
  37   22   42 1
  38   22   43 1
  39   23   44 1
  40   23   45 1
  41   23   46 1
  42   24   25 1
  43   24   29 1
  44   25   26 1
  45   25   47 1
  46   25   48 1
  47   26   27 1
  48   26   31 1
  49   26   49 1
  50   27   28 1
  51   28   29 1
  52   28   30 1
  53   28   50 1
  54   29   51 1
  55   29   52 1
  56   30   53 1
  57   30   54 1
  58   30   55 1
  59   31   56 1
  60   31   57 1
  61   31   58 1

#	End of record

