#	Name: ASD01816653
#	Creating user name:	WinNT
#	Creation time:	15. 06. 2019 19:35

#	Modifying user name:	WinNT
#	Modification time:	15. 06. 2019 19:35

#	Program:	/corina/corina34_cracker 3.40 0067  02.08.2006

@<TRIPOS>MOLECULE
ASD01816653
  61   65    0    0    0
SMALL
NO_CHARGES


@<TRIPOS>ATOM
   1 C1            -0.0167     1.3960     0.0157 C.2     
   2 C2             0.0025    -0.0052    -0.0025 C.2     
   3 C3             1.1989    -0.6602    -0.0248 C.2     
   4 C4             2.3921     0.0815    -0.0292 C.2     
   5 N5             2.3439     1.4491    -0.0107 N.am    
   6 C6             1.1421     2.0927     0.0111 C.2     
   7 C7             3.6230    -0.5886    -0.0521 C.2     
   8 C8             4.7879     0.1231    -0.0565 C.2     
   9 C9             4.7340     1.5284    -0.0380 C.2     
  10 C10            3.4813     2.1731    -0.0149 C.2     
  11 C11            3.6604    -2.0950    -0.0712 C.3     
  12 O12            3.4256     3.3913     0.0013 O.2     
  13 C13            5.9710     2.3159    -0.0418 C.2     
  14 N14            7.1647     1.6963     0.0459 N.am    
  15 O15            5.9198     3.5292    -0.1241 O.2     
  16 C16            3.7800    -2.5765    -1.4942 C.ar    
  17 C17            5.0302    -2.7681    -2.0541 C.ar    
  18 C18            5.1455    -3.2093    -3.3568 C.ar    
  19 C19            3.9996    -3.4619    -4.1081 C.ar    
  20 C20            2.7427    -3.2672    -3.5390 C.ar    
  21 C21            2.6391    -2.8307    -2.2338 C.ar    
  22 C22            4.1173    -3.9360    -5.5093 C.ar    
  23 C23            5.3695    -4.1331    -6.0869 C.ar    
  24 N24            5.4754    -4.5544    -7.3307 N.ar    
  25 C25            4.4147    -4.8047    -8.0735 C.ar    
  26 C26            3.1369    -4.6330    -7.5726 C.ar    
  27 C27            2.9737    -4.1975    -6.2689 C.ar    
  28 C28            8.4025     2.4710    -0.0711 C.3     
  29 C29            8.7701     3.0545     1.2947 C.3     
  30 C30            9.5310     1.5590    -0.5565 C.3     
  31 C31           10.8238     2.3681    -0.6787 C.3     
  32 C32           11.1914     2.9516     0.6871 C.3     
  33 C33           10.0629     3.8636     1.1725 C.3     
  34 O34            9.1878     1.0141    -1.8321 O.3     
  35 H35           -0.9603     1.9212     0.0290 H       
  36 H36           -0.9228    -0.5622     0.0015 H       
  37 H37            1.2286    -1.7397    -0.0387 H       
  38 H38            1.1154     3.1723     0.0255 H       
  39 H39            5.7397    -0.3869    -0.0737 H       
  40 H40            4.5179    -2.4445     0.5038 H       
  41 H41            2.7436    -2.4869     0.3691 H       
  42 H42            7.2041     0.7373     0.1865 H       
  43 H43            5.9178    -2.5717    -1.4709 H       
  44 H44            6.1222    -3.3583    -3.7930 H       
  45 H45            1.8512    -3.4610    -4.1171 H       
  46 H46            1.6653    -2.6794    -1.7917 H       
  47 H47            6.2615    -3.9385    -5.5101 H       
  48 H48            4.5459    -5.1487    -9.0888 H       
  49 H49            2.2759    -4.8405    -8.1906 H       
  50 H50            1.9876    -4.0550    -5.8521 H       
  51 H51            8.2577     3.2815    -0.7854 H       
  52 H52            7.9661     3.7042     1.6405 H       
  53 H53            8.9149     2.2439     2.0090 H       
  54 H54            9.6758     0.7485     0.1578 H       
  55 H55           11.6278     1.7184    -1.0245 H       
  56 H56           10.6790     3.1786    -1.3930 H       
  57 H57           11.3362     2.1410     1.4014 H       
  58 H58           12.1124     3.5280     0.6000 H       
  59 H59            9.9181     4.6741     0.4582 H       
  60 H60           10.3247     4.2792     2.1455 H       
  61 H61            9.8594     0.4247    -2.2017 H       
@<TRIPOS>BOND
   1    1    2 1
   2    1    6 2
   3    1   35 1
   4    2    3 2
   5    2   36 1
   6    3    4 1
   7    3   37 1
   8    4    5 1
   9    4    7 2
  10    5    6 1
  11    5   10 am
  12    6   38 1
  13    7    8 1
  14    7   11 1
  15    8    9 2
  16    8   39 1
  17    9   10 1
  18    9   13 1
  19   10   12 2
  20   11   16 1
  21   11   40 1
  22   11   41 1
  23   13   14 am
  24   13   15 2
  25   14   28 1
  26   14   42 1
  27   16   17 ar
  28   16   21 ar
  29   17   18 ar
  30   17   43 1
  31   18   19 ar
  32   18   44 1
  33   19   20 ar
  34   19   22 1
  35   20   21 ar
  36   20   45 1
  37   21   46 1
  38   22   23 ar
  39   22   27 ar
  40   23   24 ar
  41   23   47 1
  42   24   25 ar
  43   25   26 ar
  44   25   48 1
  45   26   27 ar
  46   26   49 1
  47   27   50 1
  48   28   29 1
  49   28   30 1
  50   28   51 1
  51   29   33 1
  52   29   52 1
  53   29   53 1
  54   30   31 1
  55   30   34 1
  56   30   54 1
  57   31   32 1
  58   31   55 1
  59   31   56 1
  60   32   33 1
  61   32   57 1
  62   32   58 1
  63   33   59 1
  64   33   60 1
  65   34   61 1

#	End of record

