#	Name: ASD01150013
#	Creating user name:	WinNT
#	Creation time:	15. 06. 2019 19:03

#	Modifying user name:	WinNT
#	Modification time:	15. 06. 2019 19:03

#	Program:	/corina/corina34_cracker 3.40 0067  02.08.2006

@<TRIPOS>MOLECULE
ASD01150013
  42   44    0    0    0
SMALL
NO_CHARGES


@<TRIPOS>ATOM
   1 N1            -0.0159     1.3198     0.0093 N.ar    
   2 C2             0.0021    -0.0041     0.0020 C.ar    
   3 C3             1.2289    -0.6636    -0.0132 C.ar    
   4 C4             2.4002     0.1159    -0.0202 C.ar    
   5 N5             2.2878     1.4398    -0.0121 N.ar    
   6 C6             1.1030     2.0167     0.0024 C.ar    
   7 C7             2.0965    -2.8016    -0.9570 C.ar    
   8 C8             2.1587    -4.1793    -0.9622 C.ar    
   9 C9             1.4278    -4.9121    -0.0372 C.ar    
  10 C10            0.6321    -4.2612     0.8958 C.ar    
  11 C11            0.5657    -2.8837     0.9063 C.ar    
  12 C12            1.2985    -2.1449    -0.0214 C.ar    
  13 C13            6.0363    -0.4504     0.5539 C.3     
  14 C14            4.8576     0.3391    -0.0421 C.3     
  15 C15            5.2500     0.6891    -1.4923 C.3     
  16 C16            6.3032    -0.3820    -1.8699 C.3     
  17 C17            7.1038    -0.5525    -0.5549 C.3     
  18 N18            3.6466    -0.4854    -0.0349 N.pl3   
  19 C19            1.0248     3.5216     0.0107 C.3     
  20 O20            1.4908    -6.2696    -0.0452 O.3     
  21 C21            0.7133    -6.9609     0.9344 C.3     
  22 H22           -0.9211    -0.5645     0.0082 H       
  23 H23            2.6689    -2.2318    -1.6740 H       
  24 H24            2.7765    -4.6886    -1.6871 H       
  25 H25            0.0644    -4.8341     1.6140 H       
  26 H26           -0.0535    -2.3779     1.6323 H       
  27 H27            6.4425     0.0791     1.4157 H       
  28 H28            5.7073    -1.4469     0.8485 H       
  29 H29            4.6918     1.2517     0.5305 H       
  30 H30            4.3831     0.6199    -2.1494 H       
  31 H31            5.6867     1.6867    -1.5392 H       
  32 H32            5.8193    -1.3172    -2.1515 H       
  33 H33            6.9488    -0.0232    -2.6715 H       
  34 H34            7.8399     0.2445    -0.4504 H       
  35 H35            7.5898    -1.5278    -0.5279 H       
  36 H36            3.7184    -1.4527    -0.0405 H       
  37 H37            0.9960     3.8896    -1.0149 H       
  38 H38            0.1222     3.8357     0.5349 H       
  39 H39            1.8997     3.9281     0.5181 H       
  40 H40            1.0332    -6.6588     1.9316 H       
  41 H41           -0.3404    -6.7159     0.8010 H       
  42 H42            0.8540    -8.0355     0.8177 H       
@<TRIPOS>BOND
   1    1    2 ar
   2    1    6 ar
   3    2    3 ar
   4    2   22 1
   5    3    4 ar
   6    3   12 1
   7    4    5 ar
   8    4   18 1
   9    5    6 ar
  10    6   19 1
  11    7    8 ar
  12    7   12 ar
  13    7   23 1
  14    8    9 ar
  15    8   24 1
  16    9   10 ar
  17    9   20 1
  18   10   11 ar
  19   10   25 1
  20   11   12 ar
  21   11   26 1
  22   13   14 1
  23   13   17 1
  24   13   27 1
  25   13   28 1
  26   14   15 1
  27   14   18 1
  28   14   29 1
  29   15   16 1
  30   15   30 1
  31   15   31 1
  32   16   17 1
  33   16   32 1
  34   16   33 1
  35   17   34 1
  36   17   35 1
  37   18   36 1
  38   19   37 1
  39   19   38 1
  40   19   39 1
  41   20   21 1
  42   21   40 1
  43   21   41 1
  44   21   42 1

#	End of record

