#	Name: ASD01230495
#	Creating user name:	WinNT
#	Creation time:	15. 06. 2019 19:14

#	Modifying user name:	WinNT
#	Modification time:	15. 06. 2019 19:14

#	Program:	/corina/corina34_cracker 3.40 0067  02.08.2006

@<TRIPOS>MOLECULE
ASD01230495
  41   44    0    0    0
SMALL
NO_CHARGES


@<TRIPOS>ATOM
   1 S1             0.0741     1.7729     1.3214 S.o2    
   2 N2            -0.1067     0.2574     0.6825 N.am    
   3 C3             0.6433    -0.1825    -0.2994 C.2     
   4 N4             1.6412     0.5203    -0.9107 N.pl3   
   5 C5             1.9730     1.9124    -0.5958 C.3     
   6 C6             1.7981     2.1814     0.9021 C.3     
   7 C7             0.3603    -1.5576    -0.7622 C.2     
   8 C8             1.1354    -2.1027    -1.7627 C.2     
   9 C9             2.1733    -1.3359    -2.3129 C.2     
  10 C10            2.3981    -0.0788    -1.8894 C.2     
  11 C11           -0.7421    -2.3397    -0.1579 C.ar    
  12 C12           -0.4614    -3.4964     0.5706 C.ar    
  13 C13           -1.4905    -4.2222     1.1319 C.ar    
  14 C14           -2.8050    -3.8038     0.9726 C.ar    
  15 C15           -3.0881    -2.6532     0.2483 C.ar    
  16 C16           -2.0637    -1.9189    -0.3106 C.ar    
  17 O17           -3.8168    -4.5221     1.5264 O.3     
  18 C18           -4.3963    -5.4932     0.7732 C.ar    
  19 C19           -3.8831    -5.8010    -0.4787 C.ar    
  20 C20           -4.4739    -6.7890    -1.2422 C.ar    
  21 C21           -5.5757    -7.4711    -0.7599 C.ar    
  22 C22           -6.0891    -7.1665     0.4873 C.ar    
  23 C23           -5.4989    -6.1829     1.2570 C.ar    
  24 F24            2.9546    -1.8650    -3.2799 F       
  25 O25           -0.8301     2.5827     0.5825 O.2     
  26 O26           -0.0745     1.5903     2.7228 O.2     
  27 H27            3.0075     2.1080    -0.8779 H       
  28 H28            1.3159     2.5749    -1.1591 H       
  29 H29            1.9935     3.2322     1.1159 H       
  30 H30            2.4789     1.5519     1.4751 H       
  31 H31            0.9469    -3.1051    -2.1177 H       
  32 H32            3.2063     0.4817    -2.3355 H       
  33 H33            0.5606    -3.8228     0.6942 H       
  34 H34           -1.2740    -5.1175     1.6958 H       
  35 H35           -4.1116    -2.3308     0.1265 H       
  36 H36           -2.2843    -1.0218    -0.8699 H       
  37 H37           -3.0227    -5.2682    -0.8560 H       
  38 H38           -4.0750    -7.0287    -2.2168 H       
  39 H39           -6.0363    -8.2431    -1.3586 H       
  40 H40           -6.9498    -7.7008     0.8617 H       
  41 H41           -5.8976    -5.9484     2.2330 H       
@<TRIPOS>BOND
   1    1    2 am
   2    1    6 1
   3    1   25 2
   4    1   26 2
   5    2    3 2
   6    3    4 1
   7    3    7 1
   8    4    5 1
   9    4   10 1
  10    5    6 1
  11    5   27 1
  12    5   28 1
  13    6   29 1
  14    6   30 1
  15    7    8 2
  16    7   11 1
  17    8    9 1
  18    8   31 1
  19    9   10 2
  20    9   24 1
  21   10   32 1
  22   11   12 ar
  23   11   16 ar
  24   12   13 ar
  25   12   33 1
  26   13   14 ar
  27   13   34 1
  28   14   15 ar
  29   14   17 1
  30   15   16 ar
  31   15   35 1
  32   16   36 1
  33   17   18 1
  34   18   19 ar
  35   18   23 ar
  36   19   20 ar
  37   19   37 1
  38   20   21 ar
  39   20   38 1
  40   21   22 ar
  41   21   39 1
  42   22   23 ar
  43   22   40 1
  44   23   41 1

#	End of record

