#	Name: ASD01915353
#	Creating user name:	WinNT
#	Creation time:	15. 06. 2019 20:05

#	Modifying user name:	WinNT
#	Modification time:	15. 06. 2019 20:05

#	Program:	/corina/corina34_cracker 3.40 0067  02.08.2006

@<TRIPOS>MOLECULE
ASD01915353
  37   40    0    0    0
SMALL
NO_CHARGES


@<TRIPOS>ATOM
   1 C1            -0.0169     1.3923     0.0097 C.ar    
   2 C2             0.0021    -0.0041     0.0020 C.ar    
   3 N3            -1.1427    -0.6906     0.0099 N.ar    
   4 C4            -2.3137    -0.0977     0.0250 C.ar    
   5 C5            -2.4143     1.2862     0.0330 C.ar    
   6 C6            -1.2656     2.0481     0.0305 C.ar    
   7 C7             1.3286     1.9585    -0.0001 C.2     
   8 C8             2.3058     1.0550    -0.0143 C.2     
   9 S9             1.6662    -0.5765    -0.0169 S.3     
  10 C10            1.5852     3.4182     0.0048 C.ar    
  11 C11            1.2150     4.1900     1.1056 C.ar    
  12 S12            4.0231     1.4489    -0.0285 S.o2    
  13 O13            4.6883     0.3234    -0.5854 O.2     
  14 O14            4.1297     2.7596    -0.5670 O.2     
  15 C15            4.5475     1.5565     1.6502 C.ar    
  16 C16            5.0208     0.4316     2.2996 C.ar    
  17 C17            4.4908     2.7669     2.3155 C.ar    
  18 C18            4.9025     2.8520     3.6322 C.ar    
  19 C19            5.3709     1.7254     4.2844 C.ar    
  20 C20            5.4318     0.5153     3.6166 C.ar    
  21 C21            1.4562     5.5485     1.1049 C.ar    
  22 C22            2.0641     6.1457     0.0137 C.ar    
  23 C23            2.4332     5.3841    -1.0820 C.ar    
  24 C24            2.2028     4.0237    -1.0889 C.ar    
  25 Cl25           2.3641     7.8555     0.0192 Cl      
  26 Cl26           5.8881     1.8315     5.9382 Cl      
  27 Cl27          -3.9727     2.0509     0.0523 Cl      
  28 H28           -3.2126    -0.6962     0.0309 H       
  29 H29           -1.3207     3.1267     0.0366 H       
  30 H30            0.7401     3.7253     1.9570 H       
  31 H31            5.0690    -0.5128     1.7780 H       
  32 H32            4.1252     3.6463     1.8063 H       
  33 H33            4.8588     3.7979     4.1517 H       
  34 H34            5.7971    -0.3646     4.1253 H       
  35 H35            1.1699     6.1472     1.9570 H       
  36 H36            2.9065     5.8550    -1.9309 H       
  37 H37            2.4911     3.4306    -1.9442 H       
@<TRIPOS>BOND
   1    1    2 ar
   2    1    7 1
   3    1    6 ar
   4    2    3 ar
   5    2    9 1
   6    3    4 ar
   7    4    5 ar
   8    4   28 1
   9    5    6 ar
  10    5   27 1
  11    6   29 1
  12    7    8 2
  13    7   10 1
  14    8    9 1
  15    8   12 1
  16   10   11 ar
  17   10   24 ar
  18   11   21 ar
  19   11   30 1
  20   12   13 2
  21   12   14 2
  22   12   15 1
  23   15   16 ar
  24   15   17 ar
  25   16   20 ar
  26   16   31 1
  27   17   18 ar
  28   17   32 1
  29   18   19 ar
  30   18   33 1
  31   19   20 ar
  32   19   26 1
  33   20   34 1
  34   21   22 ar
  35   21   35 1
  36   22   23 ar
  37   22   25 1
  38   23   24 ar
  39   23   36 1
  40   24   37 1

#	End of record

