#	Name: ASD08170134
#	Creating user name:	WinNT
#	Creation time:	15. 06. 2019 21:17

#	Modifying user name:	WinNT
#	Modification time:	15. 06. 2019 21:17

#	Program:	/corina/corina34_cracker 3.40 0067  02.08.2006

@<TRIPOS>MOLECULE
ASD08170134
  77   80    0    0    0
SMALL
NO_CHARGES


@<TRIPOS>ATOM
   1 C1            -0.0184     1.5028     0.0103 C.3     
   2 C2             3.1542     4.2782    -0.0051 C.3     
   3 C3             3.3060     5.8007     0.0016 C.3     
   4 C4             4.7695     6.1596    -0.0104 C.2     
   5 C5             0.0021    -0.0041     0.0020 C.2     
   6 S6             5.7936     6.3998     1.4057 S.3     
   7 C7             7.1163     6.7314     0.3688 C.2     
   8 N8             6.7127     6.6418    -0.8625 N.2     
   9 N9             5.5028     6.3417    -1.0624 N.2     
  10 S10            0.0026    -1.0367    -1.4281 S.3     
  11 N11            0.0281    -0.7735     1.0436 N.2     
  12 N12            0.0423    -2.0172     0.8270 N.2     
  13 C13            0.0316    -2.4140    -0.4097 C.2     
  14 N14            0.0439    -3.7376    -0.8365 N.am    
  15 C15            0.0694    -4.7369     0.0675 C.2     
  16 O16            0.0817    -4.4819     1.2531 O.2     
  17 N17            8.4080     7.0451     0.7777 N.am    
  18 C18            9.3654     7.2864    -0.1397 C.2     
  19 C19           10.7651     7.6263     0.3033 C.3     
  20 O20            9.1005     7.2299    -1.3219 O.2     
  21 C21            0.0826    -6.1711    -0.3950 C.3     
  22 C22           11.6485     7.8516    -0.9254 C.3     
  23 C23            0.1114    -7.0989     0.8213 C.3     
  24 C24            1.4170     2.0324    -0.0006 C.3     
  25 C25            0.1248    -8.5550     0.3518 C.3     
  26 C26            1.4066    -8.8315    -0.3909 C.2     
  27 C27           13.0696     8.1967    -0.4756 C.3     
  28 C28           13.6721     7.0134     0.2371 C.2     
  29 O29           14.9214     7.0872     0.7226 O.3     
  30 O30           13.0308     5.9983     0.3714 O.2     
  31 C31           13.9086     8.5385    -1.6798 C.ar    
  32 C32           14.4938     9.7866    -1.7828 C.ar    
  33 C33           14.0977     7.6019    -2.6788 C.ar    
  34 C34           14.8674     7.9154    -3.7834 C.ar    
  35 C35           15.4475     9.1656    -3.8893 C.ar    
  36 C36           15.2634    10.1001    -2.8875 C.ar    
  37 O37            1.6387   -10.0527    -0.8975 O.3     
  38 O38            2.2254    -7.9540    -0.5304 O.2     
  39 C39            0.0292    -9.4689     1.5463 C.ar    
  40 C40           -1.0298   -10.3501     1.6593 C.ar    
  41 C41           -1.1175   -11.1884     2.7550 C.ar    
  42 C42           -0.1460   -11.1456     3.7375 C.ar    
  43 C43            0.9135   -10.2650     3.6240 C.ar    
  44 C44            1.0035    -9.4298     2.5261 C.ar    
  45 S45            1.3924     3.8462     0.0094 S.3     
  46 H46           -0.5455     1.8639    -0.8728 H       
  47 H47           -0.5286     1.8543     0.9071 H       
  48 H48            3.6209     3.8705    -0.9018 H       
  49 H49            3.6379     3.8610     0.8781 H       
  50 H50            2.8222     6.2179    -0.8815 H       
  51 H51            2.8392     6.2084     0.8983 H       
  52 H52            0.0340    -3.9415    -1.7848 H       
  53 H53            8.6200     7.0903     1.7232 H       
  54 H54           10.7448     8.5333     0.9075 H       
  55 H55           11.1685     6.8045     0.8951 H       
  56 H56           -0.8126    -6.3714    -0.9836 H       
  57 H57            0.9670    -6.3473    -1.0073 H       
  58 H58           11.6688     6.9445    -1.5295 H       
  59 H59           11.2451     8.6733    -1.5171 H       
  60 H60            1.0066    -6.8987     1.4099 H       
  61 H61           -0.7730    -6.9227     1.4336 H       
  62 H62            1.9442     1.6713     0.8825 H       
  63 H63            1.9272     1.6808    -0.8974 H       
  64 H64           -0.7236    -8.7314    -0.3095 H       
  65 H65           13.0392     9.0511     0.2005 H       
  66 H66           15.2648     6.3028     1.1719 H       
  67 H67           14.3494    10.5169    -1.0004 H       
  68 H68           13.6445     6.6251    -2.5961 H       
  69 H69           15.0157     7.1834    -4.5636 H       
  70 H70           16.0491     9.4105    -4.7522 H       
  71 H71           15.7166    11.0769    -2.9702 H       
  72 H72            2.4748   -10.1821    -1.3658 H       
  73 H73           -1.7888   -10.3835     0.8917 H       
  74 H74           -1.9453   -11.8764     2.8436 H       
  75 H75           -0.2149   -11.8000     4.5939 H       
  76 H76            1.6723   -10.2314     4.3917 H       
  77 H77            1.8312    -8.7418     2.4375 H       
@<TRIPOS>BOND
   1    1    5 1
   2    1   24 1
   3    1   46 1
   4    1   47 1
   5    2    3 1
   6    2   45 1
   7    2   48 1
   8    2   49 1
   9    3    4 1
  10    3   50 1
  11    3   51 1
  12    4    6 1
  13    4    9 2
  14    5   10 1
  15    5   11 2
  16    6    7 1
  17    7    8 2
  18    7   17 1
  19    8    9 1
  20   10   13 1
  21   11   12 1
  22   12   13 2
  23   13   14 1
  24   14   15 am
  25   14   52 1
  26   15   16 2
  27   15   21 1
  28   17   18 am
  29   17   53 1
  30   18   19 1
  31   18   20 2
  32   19   22 1
  33   19   54 1
  34   19   55 1
  35   21   23 1
  36   21   56 1
  37   21   57 1
  38   22   27 1
  39   22   58 1
  40   22   59 1
  41   23   25 1
  42   23   60 1
  43   23   61 1
  44   24   45 1
  45   24   62 1
  46   24   63 1
  47   25   26 1
  48   25   39 1
  49   25   64 1
  50   26   37 1
  51   26   38 2
  52   27   28 1
  53   27   31 1
  54   27   65 1
  55   28   29 1
  56   28   30 2
  57   29   66 1
  58   31   32 ar
  59   31   33 ar
  60   32   36 ar
  61   32   67 1
  62   33   34 ar
  63   33   68 1
  64   34   35 ar
  65   34   69 1
  66   35   36 ar
  67   35   70 1
  68   36   71 1
  69   37   72 1
  70   39   40 ar
  71   39   44 ar
  72   40   41 ar
  73   40   73 1
  74   41   42 ar
  75   41   74 1
  76   42   43 ar
  77   42   75 1
  78   43   44 ar
  79   43   76 1
  80   44   77 1

#	End of record

