#	Name: ASD01948254
#	Creating user name:	WinNT
#	Creation time:	15. 06. 2019 20:14

#	Modifying user name:	WinNT
#	Modification time:	15. 06. 2019 20:14

#	Program:	/corina/corina34_cracker 3.40 0067  02.08.2006

@<TRIPOS>MOLECULE
ASD01948254
  55   60    0    0    0
SMALL
NO_CHARGES


@<TRIPOS>ATOM
   1 C1             0.7793     1.0571    -1.0695 C.ar    
   2 C2             0.9061    -0.3207    -1.0815 C.ar    
   3 C3             2.1486    -0.9051    -0.9170 C.ar    
   4 C4             3.2684    -0.1149    -0.7405 C.ar    
   5 C5             3.1462     1.2672    -0.7281 C.ar    
   6 C6             1.8958     1.8533    -0.8932 C.ar    
   7 C7             5.1577     2.3177    -2.9389 C.ar    
   8 C8             5.1390     2.5095    -1.5583 C.ar    
   9 N9             4.2807     2.0712    -0.5487 N.am    
  10 C10            6.1521     2.8854    -3.7057 C.ar    
  11 C11            7.1489     3.6585    -3.0979 C.ar    
  12 C12            7.1324     3.8532    -1.7107 C.ar    
  13 C13            6.1250     3.2763    -0.9434 C.ar    
  14 N14            5.8394     3.2825     0.4224 N.am    
  15 C15            4.7276     2.5516     0.6267 C.2     
  16 O16            4.2062     2.3552     1.7087 O.2     
  17 I17           -0.7879    -1.5240    -1.3489 I       
  18 F18            6.1654     2.6958    -5.0433 F       
  19 F19            1.7724     3.1986    -0.8818 F       
  20 F20            4.2002     1.5676    -3.5268 F       
  21 O21            8.2028     4.6280    -1.4245 O.3     
  22 C22            8.8440     4.8962    -2.5731 C.2     
  23 N23            8.2340     4.3310    -3.5706 N.2     
  24 S24            6.7182     4.0576     1.5926 S.o2    
  25 C25            5.9657     5.7042     1.7076 C.3     
  26 O26            6.4647     3.3099     2.7740 O.2     
  27 O27            8.0276     4.1447     1.0475 O.2     
  28 C28            5.8607     6.5244     0.4203 C.3     
  29 C29            4.6047     5.9072     1.0387 C.3     
  30 C30            6.2342     6.4629     3.0088 C.3     
  31 O31            6.1875     5.5526     4.1093 O.3     
  32 C32            6.3214     6.1781     5.3871 C.3     
  33 C33            6.1445     5.1473     6.4721 C.ar    
  34 C34            7.2500     4.5252     7.0214 C.ar    
  35 C35            7.0877     3.5796     8.0165 C.ar    
  36 C36            5.8199     3.2564     8.4628 C.ar    
  37 C37            4.7144     3.8791     7.9141 C.ar    
  38 C38            4.8770     4.8279     6.9220 C.ar    
  39 H39           -0.1917     1.5108    -1.2023 H       
  40 H40            2.2439    -1.9809    -0.9263 H       
  41 H41            4.2380    -0.5728    -0.6118 H       
  42 H42            9.7385     5.4958    -2.6556 H       
  43 H43            5.9825     7.6046     0.5005 H       
  44 H44            6.2438     6.0746    -0.4957 H       
  45 H45            4.1615     5.0514     0.5296 H       
  46 H46            3.9002     6.5814     1.5258 H       
  47 H47            7.2195     6.9266     2.9624 H       
  48 H48            5.4756     7.2341     3.1428 H       
  49 H49            7.3113     6.6267     5.4701 H       
  50 H50            5.5616     6.9523     5.4941 H       
  51 H51            8.2405     4.7777     6.6727 H       
  52 H52            7.9514     3.0930     8.4452 H       
  53 H53            5.6931     2.5171     9.2398 H       
  54 H54            3.7239     3.6264     8.2625 H       
  55 H55            4.0133     5.3144     6.4934 H       
@<TRIPOS>BOND
   1    1    2 ar
   2    1    6 ar
   3    1   39 1
   4    2    3 ar
   5    2   17 1
   6    3    4 ar
   7    3   40 1
   8    4    5 ar
   9    4   41 1
  10    5    6 ar
  11    5    9 1
  12    6   19 1
  13    7    8 ar
  14    7   10 ar
  15    7   20 1
  16    8    9 1
  17    8   13 ar
  18    9   15 am
  19   10   11 ar
  20   10   18 1
  21   11   12 ar
  22   11   23 1
  23   12   13 ar
  24   12   21 1
  25   13   14 1
  26   14   24 am
  27   14   15 am
  28   15   16 2
  29   21   22 1
  30   22   23 2
  31   22   42 1
  32   24   25 1
  33   24   26 2
  34   24   27 2
  35   25   28 1
  36   25   29 1
  37   25   30 1
  38   28   29 1
  39   28   43 1
  40   28   44 1
  41   29   45 1
  42   29   46 1
  43   30   31 1
  44   30   47 1
  45   30   48 1
  46   31   32 1
  47   32   33 1
  48   32   49 1
  49   32   50 1
  50   33   34 ar
  51   33   38 ar
  52   34   35 ar
  53   34   51 1
  54   35   36 ar
  55   35   52 1
  56   36   37 ar
  57   36   53 1
  58   37   38 ar
  59   37   54 1
  60   38   55 1

#	End of record

