#	Name: ASD01440117
#	Creating user name:	WinNT
#	Creation time:	15. 06. 2019 19:21

#	Modifying user name:	WinNT
#	Modification time:	15. 06. 2019 19:21

#	Program:	/corina/corina34_cracker 3.40 0067  02.08.2006

@<TRIPOS>MOLECULE
ASD01440117
  44   46    0    0    0
SMALL
NO_CHARGES


@<TRIPOS>ATOM
   1 C1             0.2315     1.1623    -0.2587 C.ar    
   2 C2             0.2560    -0.1911    -0.0090 C.ar    
   3 C3             1.3359    -0.7574     0.6593 C.ar    
   4 C4             2.3952     0.0400     1.0782 C.ar    
   5 C5             2.3789     1.3943     0.8327 C.ar    
   6 C6             1.2948     1.9681     0.1609 C.ar    
   7 C7             1.2729     3.4187    -0.1044 C.2     
   8 O8             0.5934     3.8608    -1.0105 O.2     
   9 C9             2.0768     4.3349     0.7313 C.ar    
  10 O10            1.3559    -2.0920     0.9037 O.3     
  11 C11            2.4954    -2.6080     1.5946 C.3     
  12 C12            2.3421    -4.0963     1.7747 C.2     
  13 N13            3.3027    -4.8014     2.4045 N.am    
  14 O14            1.3542    -4.6597     1.3529 O.2     
  15 C15            2.4537     5.5859     0.2377 C.ar    
  16 C16            3.2036     6.4362     1.0232 C.ar    
  17 C17            3.5830     6.0520     2.2974 C.ar    
  18 C18            3.2134     4.8138     2.7926 C.ar    
  19 C19            2.4583     3.9560     2.0202 C.ar    
  20 C20            4.4027     6.9863     3.1495 C.3     
  21 C21            3.1159    -6.1645     2.6608 C.ar    
  22 C22            4.1972    -7.0355     2.6632 C.ar    
  23 N23            4.0252    -8.3200     2.9038 N.ar    
  24 C24            2.8333    -8.8273     3.1501 C.ar    
  25 C25            1.7084    -8.0233     3.1654 C.ar    
  26 C26            1.8434    -6.6664     2.9230 C.ar    
  27 H27           -0.6056     1.6006    -0.7817 H       
  28 H28           -0.5648    -0.8141    -0.3323 H       
  29 H29            3.2319    -0.4039     1.5972 H       
  30 H30            3.2019     2.0130     1.1588 H       
  31 H31            3.3953    -2.4030     1.0149 H       
  32 H32            2.5754    -2.1302     2.5710 H       
  33 H33            4.1235    -4.3641     2.6800 H       
  34 H34            2.1589     5.8866    -0.7568 H       
  35 H35            3.4957     7.4038     0.6429 H       
  36 H36            3.5135     4.5200     3.7876 H       
  37 H37            2.1664     2.9919     2.4097 H       
  38 H38            3.7381     7.6214     3.7353 H       
  39 H39            5.0350     6.4053     3.8209 H       
  40 H40            5.0280     7.6081     2.5088 H       
  41 H41            5.1892    -6.6567     2.4656 H       
  42 H42            2.7342    -9.8854     3.3421 H       
  43 H43            0.7363    -8.4480     3.3677 H       
  44 H44            0.9821    -6.0148     2.9291 H       
@<TRIPOS>BOND
   1    1    2 ar
   2    1    6 ar
   3    1   27 1
   4    2    3 ar
   5    2   28 1
   6    3    4 ar
   7    3   10 1
   8    4    5 ar
   9    4   29 1
  10    5    6 ar
  11    5   30 1
  12    6    7 1
  13    7    8 2
  14    7    9 1
  15    9   15 ar
  16    9   19 ar
  17   10   11 1
  18   11   12 1
  19   11   31 1
  20   11   32 1
  21   12   13 am
  22   12   14 2
  23   13   21 1
  24   13   33 1
  25   15   16 ar
  26   15   34 1
  27   16   17 ar
  28   16   35 1
  29   17   18 ar
  30   17   20 1
  31   18   19 ar
  32   18   36 1
  33   19   37 1
  34   20   38 1
  35   20   39 1
  36   20   40 1
  37   21   22 ar
  38   21   26 ar
  39   22   23 ar
  40   22   41 1
  41   23   24 ar
  42   24   25 ar
  43   24   42 1
  44   25   26 ar
  45   25   43 1
  46   26   44 1

#	End of record

