#	Name: ASD01140054
#	Creating user name:	WinNT
#	Creation time:	15. 06. 2019 18:59

#	Modifying user name:	WinNT
#	Modification time:	15. 06. 2019 18:59

#	Program:	/corina/corina34_cracker 3.40 0067  02.08.2006

@<TRIPOS>MOLECULE
ASD01140054
  34   34    0    0    0
SMALL
NO_CHARGES


@<TRIPOS>ATOM
   1 C1            -0.0162     1.3457     0.0094 C.2     
   2 N2             0.0021    -0.0041     0.0020 N.am    
   3 C3            -1.1232    -0.7278     0.0093 C.2     
   4 N4            -2.3594    -0.2164     0.0244 N.am    
   5 C5            -2.5820     1.1150     0.0333 C.2     
   6 C6            -1.3707     2.0284     0.0325 C.3     
   7 O7            -1.0145    -1.9378     0.0013 O.2     
   8 O8             1.0117     1.9884     0.0031 O.2     
   9 O9            -3.7080     1.5641     0.0465 O.2     
  10 C10           -1.4451     2.9189     1.2744 C.3     
  11 C11           -1.4444     2.0442     2.5298 C.3     
  12 C12           -1.4577     2.9333    -1.1982 C.3     
  13 C13           -1.4698     2.0734    -2.4637 C.3     
  14 C14           -1.4309     2.9791    -3.6961 C.3     
  15 C15           -1.4430     2.1192    -4.9616 C.3     
  16 C16           -2.7422     3.7619    -1.1323 C.3     
  17 H17            0.8566    -0.4630    -0.0093 H       
  18 H18           -3.1184    -0.8203     0.0287 H       
  19 H19           -0.5830     3.5856     1.2957 H       
  20 H20           -2.3606     3.5096     1.2437 H       
  21 H21           -1.4974     2.6786     3.4146 H       
  22 H22           -2.3065     1.3775     2.5086 H       
  23 H23           -0.5289     1.4535     2.5605 H       
  24 H24           -0.5958     3.6003    -1.2204 H       
  25 H25           -0.5984     1.4186    -2.4663 H       
  26 H26           -2.3775     1.4703    -2.4844 H       
  27 H27           -2.3023     3.6340    -3.6935 H       
  28 H28           -0.5232     3.5822    -3.6753 H       
  29 H29           -1.4153     2.7645    -5.8396 H       
  30 H30           -0.5717     1.4644    -4.9643 H       
  31 H31           -2.3508     1.5162    -4.9824 H       
  32 H32           -2.7335     4.3745    -0.2308 H       
  33 H33           -2.8041     4.4065    -2.0091 H       
  34 H34           -3.6040     3.0949    -1.1101 H       
@<TRIPOS>BOND
   1    1    2 am
   2    1    8 2
   3    1    6 1
   4    2    3 am
   5    2   17 1
   6    3    4 am
   7    3    7 2
   8    4    5 am
   9    4   18 1
  10    5    6 1
  11    5    9 2
  12    6   10 1
  13    6   12 1
  14   10   11 1
  15   10   19 1
  16   10   20 1
  17   11   21 1
  18   11   22 1
  19   11   23 1
  20   12   13 1
  21   12   16 1
  22   12   24 1
  23   13   14 1
  24   13   25 1
  25   13   26 1
  26   14   15 1
  27   14   27 1
  28   14   28 1
  29   15   29 1
  30   15   30 1
  31   15   31 1
  32   16   32 1
  33   16   33 1
  34   16   34 1

#	End of record

