#	Name: ASD01150253
#	Creating user name:	WinNT
#	Creation time:	15. 06. 2019 19:03

#	Modifying user name:	WinNT
#	Modification time:	15. 06. 2019 19:03

#	Program:	/corina/corina34_cracker 3.40 0067  02.08.2006

@<TRIPOS>MOLECULE
ASD01150253
  60   63    0    0    0
SMALL
NO_CHARGES


@<TRIPOS>ATOM
   1 C1            -0.0169     1.3946     0.0097 C.ar    
   2 C2             0.0021    -0.0041     0.0020 C.ar    
   3 C3            -1.1549    -0.7199     0.0088 C.ar    
   4 C4            -2.3932    -0.0561     0.0236 C.ar    
   5 C5            -2.4179     1.3603     0.0320 C.ar    
   6 C6            -1.2154     2.0778     0.0306 C.ar    
   7 N7            -3.5392    -0.7501     0.0295 N.ar    
   8 C8            -4.7075    -0.1626     0.0429 C.ar    
   9 C9            -4.8298     1.2367     0.0516 C.ar    
  10 C10           -3.6688     2.0268     0.0471 C.ar    
  11 C11           -3.7484     3.5021     0.0557 C.ar    
  12 C12           -6.1605     1.8681     0.0658 C.2     
  13 C13           -5.9547    -1.0086     0.0488 C.3     
  14 C14           -4.2878     4.1686     1.1584 C.ar    
  15 C15           -4.3597     5.5452     1.1610 C.ar    
  16 C16           -3.8983     6.2681     0.0717 C.ar    
  17 C17           -3.3621     5.6119    -1.0256 C.ar    
  18 C18           -3.2795     4.2358    -1.0364 C.ar    
  19 F19           -3.9720     7.6171     0.0792 F       
  20 O20           -6.7009     2.1227     1.1240 O.2     
  21 O21           -6.7786     2.1634    -1.0949 O.3     
  22 N22            1.1857     2.1044     0.0020 N.3     
  23 C23           -8.0880     2.7845    -1.0050 C.3     
  24 C24           -7.9725     4.1112    -0.2516 C.3     
  25 C25           -8.6277     3.0429    -2.4131 C.3     
  26 C26           -9.0435     1.8539    -0.2554 C.3     
  27 C27            2.3356     1.1912    -0.0138 C.3     
  28 C28            3.6270     1.9977    -0.1686 C.3     
  29 C29            3.7502     2.9833     0.9967 C.3     
  30 C30            2.5172     3.8909     1.0198 C.3     
  31 C31            1.2580     3.0296     1.1401 C.3     
  32 H32            0.9490    -0.5233    -0.0098 H       
  33 H33           -1.1215    -1.7993     0.0023 H       
  34 H34           -1.2261     3.1578     0.0372 H       
  35 H35           -6.2465    -1.2185     1.0778 H       
  36 H36           -6.7593    -0.4730    -0.4551 H       
  37 H37           -5.7602    -1.9460    -0.4722 H       
  38 H38           -4.6481     3.6064     2.0073 H       
  39 H39           -4.7765     6.0615     2.0131 H       
  40 H40           -3.0045     6.1800    -1.8716 H       
  41 H41           -2.8613     3.7256    -1.8915 H       
  42 H42           -7.2917     4.7741    -0.7856 H       
  43 H43           -8.9554     4.5774    -0.1841 H       
  44 H44           -7.5880     3.9270     0.7516 H       
  45 H45           -8.7100     2.0978    -2.9498 H       
  46 H46           -9.6106     3.5092    -2.3456 H       
  47 H47           -7.9469     3.7059    -2.9471 H       
  48 H48           -8.6591     1.6698     0.7477 H       
  49 H49          -10.0265     2.3202    -0.1879 H       
  50 H50           -9.1258     0.9088    -0.7921 H       
  51 H51            2.3672     0.6307     0.9205 H       
  52 H52            2.2377     0.4985    -0.8496 H       
  53 H53            4.4814     1.3209    -0.1647 H       
  54 H54            3.6020     2.5477    -1.1093 H       
  55 H55            3.8144     2.4320     1.9348 H       
  56 H56            4.6466     3.5898     0.8675 H       
  57 H57            2.5787     4.5667     1.8728 H       
  58 H58            2.4748     4.4707     0.0978 H       
  59 H59            0.3774     3.6720     1.1425 H       
  60 H60            1.2946     2.4605     2.0690 H       
@<TRIPOS>BOND
   1    1    2 ar
   2    1   22 1
   3    1    6 ar
   4    2    3 ar
   5    2   32 1
   6    3    4 ar
   7    3   33 1
   8    4    5 ar
   9    4    7 ar
  10    5    6 ar
  11    5   10 ar
  12    6   34 1
  13    7    8 ar
  14    8    9 ar
  15    8   13 1
  16    9   10 ar
  17    9   12 1
  18   10   11 1
  19   11   14 ar
  20   11   18 ar
  21   12   20 2
  22   12   21 1
  23   13   35 1
  24   13   36 1
  25   13   37 1
  26   14   15 ar
  27   14   38 1
  28   15   16 ar
  29   15   39 1
  30   16   17 ar
  31   16   19 1
  32   17   18 ar
  33   17   40 1
  34   18   41 1
  35   21   23 1
  36   22   27 1
  37   22   31 1
  38   23   24 1
  39   23   25 1
  40   23   26 1
  41   24   42 1
  42   24   43 1
  43   24   44 1
  44   25   45 1
  45   25   46 1
  46   25   47 1
  47   26   48 1
  48   26   49 1
  49   26   50 1
  50   27   28 1
  51   27   51 1
  52   27   52 1
  53   28   29 1
  54   28   53 1
  55   28   54 1
  56   29   30 1
  57   29   55 1
  58   29   56 1
  59   30   31 1
  60   30   57 1
  61   30   58 1
  62   31   59 1
  63   31   60 1

#	End of record

