#	Name: ASD01915119
#	Creating user name:	WinNT
#	Creation time:	15. 06. 2019 20:04

#	Modifying user name:	WinNT
#	Modification time:	15. 06. 2019 20:04

#	Program:	/corina/corina34_cracker 3.40 0067  02.08.2006

@<TRIPOS>MOLECULE
ASD01915119
  39   41    0    0    0
SMALL
NO_CHARGES


@<TRIPOS>ATOM
   1 C1            -0.0169     1.3924     0.0097 C.ar    
   2 C2             0.0021    -0.0041     0.0020 C.ar    
   3 N3            -1.1430    -0.6903     0.0092 N.ar    
   4 C4            -2.3136    -0.0965     0.0236 C.ar    
   5 C5            -2.4136     1.2863     0.0320 C.ar    
   6 C6            -1.2657     2.0479     0.0305 C.ar    
   7 C7             1.3286     1.9586    -0.0001 C.2     
   8 C8             2.3057     1.0550    -0.0143 C.2     
   9 S9             1.6661    -0.5765    -0.0169 S.3     
  10 C10            1.5853     3.4182     0.0053 C.ar    
  11 C11            1.2153     4.1896     1.1063 C.ar    
  12 C12            1.4570     5.5481     1.1063 C.ar    
  13 C13            2.0652     6.1455     0.0155 C.ar    
  14 C14            2.4346     5.3842    -1.0803 C.ar    
  15 C15            2.2028     4.0241    -1.0883 C.ar    
  16 Cl16           2.3654     7.8553     0.0216 Cl      
  17 S17            4.0231     1.4489    -0.0291 S.o2    
  18 C18            4.4814     1.5411     1.7236 C.3     
  19 O19            4.6352     0.3247    -0.6461 O.2     
  20 O20            4.0822     2.7360    -0.6284 O.2     
  21 C21            5.9682     1.8812     1.8447 C.3     
  22 C22            6.3548     1.9590     3.3231 C.3     
  23 C23            7.8416     2.2990     3.4442 C.3     
  24 H24           -3.2129    -0.6945     0.0286 H       
  25 H25           -3.3830     1.7623     0.0435 H       
  26 H26           -1.3210     3.1265     0.0370 H       
  27 H27            0.7401     3.7247     1.9575 H       
  28 H28            1.1709     6.1465     1.9586 H       
  29 H29            2.9088     5.8552    -1.9287 H       
  30 H30            2.4916     3.4311    -1.9435 H       
  31 H31            3.8906     2.3152     2.2134 H       
  32 H32            4.2884     0.5803     2.2007 H       
  33 H33            6.5591     1.1072     1.3549 H       
  34 H34            6.1612     2.8420     1.3677 H       
  35 H35            5.7640     2.7330     3.8129 H       
  36 H36            6.1618     0.9981     3.8001 H       
  37 H37            8.4325     1.5250     2.9544 H       
  38 H38            8.0346     3.2599     2.9671 H       
  39 H39            8.1171     2.3545     4.4973 H       
@<TRIPOS>BOND
   1    1    2 ar
   2    1    7 1
   3    1    6 ar
   4    2    3 ar
   5    2    9 1
   6    3    4 ar
   7    4    5 ar
   8    4   24 1
   9    5    6 ar
  10    5   25 1
  11    6   26 1
  12    7    8 2
  13    7   10 1
  14    8    9 1
  15    8   17 1
  16   10   11 ar
  17   10   15 ar
  18   11   12 ar
  19   11   27 1
  20   12   13 ar
  21   12   28 1
  22   13   14 ar
  23   13   16 1
  24   14   15 ar
  25   14   29 1
  26   15   30 1
  27   17   18 1
  28   17   19 2
  29   17   20 2
  30   18   21 1
  31   18   31 1
  32   18   32 1
  33   21   22 1
  34   21   33 1
  35   21   34 1
  36   22   23 1
  37   22   35 1
  38   22   36 1
  39   23   37 1
  40   23   38 1
  41   23   39 1

#	End of record

