#	Name: ASD01190006
#	Creating user name:	WinNT
#	Creation time:	15. 06. 2019 19:07

#	Modifying user name:	WinNT
#	Modification time:	15. 06. 2019 19:07

#	Program:	/corina/corina34_cracker 3.40 0067  02.08.2006

@<TRIPOS>MOLECULE
ASD01190006
  44   47    0    0    0
SMALL
NO_CHARGES


@<TRIPOS>ATOM
   1 C1            -0.0630     1.5034     0.0395 C.ar    
   2 C2            -0.0708     0.1159     0.0249 C.ar    
   3 C3             1.1275    -0.5763     0.0033 C.ar    
   4 C4             2.3373     0.1052    -0.0040 C.ar    
   5 C5             2.3406     1.4847     0.0007 C.ar    
   6 C6             1.1385     2.1790     0.0274 C.ar    
   7 C7             3.6006    -0.7146    -0.0042 C.3     
   8 C8             4.8119     0.1337    -0.3897 C.3     
   9 C9             4.7875     1.4107     0.4498 C.3     
  10 C10            3.6168     2.2741    -0.0374 C.3     
  11 C11            6.0482     2.2302     0.2656 C.3     
  12 C12            5.9269     3.4447     1.2280 C.3     
  13 C13            4.8332     4.3515     0.7039 C.3     
  14 C14            3.5087     3.5664     0.7592 C.3     
  15 C15            7.3491     1.5821     0.7514 C.3     
  16 C16            8.2742     2.8042     1.0027 C.3     
  17 C17            7.3404     4.0147     1.2538 C.3     
  18 O18            7.6164     4.5968     2.5294 O.3     
  19 O19           -1.2496    -0.5603     0.0322 O.3     
  20 C20            5.5589     2.9536     2.6295 C.3     
  21 H21           -0.9936     2.0513     0.0559 H       
  22 H22            1.1216    -1.6562    -0.0077 H       
  23 H23            1.1449     3.2589     0.0388 H       
  24 H24            3.7574    -1.1290     0.9917 H       
  25 H25            3.4956    -1.5321    -0.7174 H       
  26 H26            5.7284    -0.4211    -0.1887 H       
  27 H27            4.7604     0.3885    -1.4483 H       
  28 H28            4.6462     1.1577     1.5006 H       
  29 H29            3.8109     2.5478    -1.0744 H       
  30 H30            6.1364     2.5665    -0.7674 H       
  31 H31            4.7611     5.2423     1.3278 H       
  32 H32            5.0511     4.6367    -0.3253 H       
  33 H33            2.7100     4.1797     0.3420 H       
  34 H34            3.2743     3.3300     1.7971 H       
  35 H35            7.1825     1.0282     1.6753 H       
  36 H36            7.7677     0.9335    -0.0181 H       
  37 H37            8.8996     2.6264     1.8775 H       
  38 H38            8.8976     2.9878     0.1276 H       
  39 H39            7.4631     4.7565     0.4647 H       
  40 H40            8.5160     4.9399     2.6188 H       
  41 H41           -1.6016    -0.7466    -0.8489 H       
  42 H42            6.2987     2.2273     2.9659 H       
  43 H43            5.5405     3.7988     3.3175 H       
  44 H44            4.5752     2.4848     2.6035 H       
@<TRIPOS>BOND
   1    1    2 ar
   2    1    6 ar
   3    1   21 1
   4    2    3 ar
   5    2   19 1
   6    3    4 ar
   7    3   22 1
   8    4    5 ar
   9    4    7 1
  10    5    6 ar
  11    5   10 1
  12    6   23 1
  13    7    8 1
  14    7   24 1
  15    7   25 1
  16    8    9 1
  17    8   26 1
  18    8   27 1
  19    9   10 1
  20    9   11 1
  21    9   28 1
  22   10   14 1
  23   10   29 1
  24   11   12 1
  25   11   15 1
  26   11   30 1
  27   12   13 1
  28   12   20 1
  29   12   17 1
  30   13   14 1
  31   13   31 1
  32   13   32 1
  33   14   33 1
  34   14   34 1
  35   15   16 1
  36   15   35 1
  37   15   36 1
  38   16   17 1
  39   16   37 1
  40   16   38 1
  41   17   18 1
  42   17   39 1
  43   18   40 1
  44   19   41 1
  45   20   42 1
  46   20   43 1
  47   20   44 1

#	End of record

