#	Name: ASD08150502
#	Creating user name:	WinNT
#	Creation time:	15. 06. 2019 21:16

#	Modifying user name:	WinNT
#	Modification time:	15. 06. 2019 21:16

#	Program:	/corina/corina34_cracker 3.40 0067  02.08.2006

@<TRIPOS>MOLECULE
ASD08150502
  51   55    0    0    0
SMALL
NO_CHARGES


@<TRIPOS>ATOM
   1 N1            -0.7895     1.6368    -7.3591 N.am    
   2 C2            -0.9800     0.7301    -8.3370 C.2     
   3 C3            -0.0857    -0.3458    -8.5107 C.2     
   4 C4             0.9860    -0.4826    -7.6890 C.2     
   5 C5             1.1895     0.4695    -6.6590 C.ar    
   6 C6             2.2852     0.3741    -5.7799 C.ar    
   7 N7             2.4709     1.2540    -4.8308 N.ar    
   8 C8             1.6389     2.2889    -4.6390 C.ar    
   9 C9             0.5098     2.4636    -5.4767 C.ar    
  10 C10            0.2805     1.5287    -6.5132 C.ar    
  11 C11           -0.0908     4.4362    -4.2395 C.ar    
  12 C12            1.0286     4.2569    -3.4149 C.ar    
  13 C13            1.8759     3.2105    -3.6059 C.ar    
  14 O14           -1.9389     0.8412    -9.0817 O.2     
  15 C15           -1.6886     2.6994    -7.2111 C.ar    
  16 C16           -1.3613     3.9600    -7.6927 C.ar    
  17 C17           -2.2509     5.0064    -7.5455 C.ar    
  18 C18           -3.4660     4.7997    -6.9189 C.ar    
  19 C19           -3.7950     3.5453    -6.4380 C.ar    
  20 C20           -2.9125     2.4938    -6.5872 C.ar    
  21 C21           -4.4338     5.9438    -6.7591 C.3     
  22 C22           -0.3519     3.5448    -5.2674 C.ar    
  23 C23           -0.9999     5.5857    -4.0106 C.ar    
  24 C24           -2.3126     5.5507    -4.4725 C.ar    
  25 N25           -3.1237     6.5699    -4.2707 N.ar    
  26 C26           -2.7297     7.6571    -3.6281 C.ar    
  27 C27           -1.4336     7.7660    -3.1373 C.ar    
  28 C28           -0.5519     6.7187    -3.3220 C.ar    
  29 O29           -3.6022     8.6797    -3.4460 O.3     
  30 C30           -4.9196     8.5102    -3.9730 C.3     
  31 N31           -1.9029     6.3505    -8.0586 N.pl3   
  32 O32           -2.7623     7.0515    -8.5620 O.2     
  33 O33           -0.7571     6.7554    -7.9773 O.2     
  34 H34           -0.2541    -1.0637    -9.2998 H       
  35 H35            1.6735    -1.3054    -7.8180 H       
  36 H36            2.9849    -0.4410    -5.8914 H       
  37 H37            1.2208     4.9594    -2.6174 H       
  38 H38            2.7335     3.0875    -2.9610 H       
  39 H39           -0.4121     4.1223    -8.1816 H       
  40 H40           -4.7447     3.3872    -5.9488 H       
  41 H41           -3.1700     1.5145    -6.2115 H       
  42 H42           -5.1440     5.9371    -7.5859 H       
  43 H43           -4.9716     5.8359    -5.8172 H       
  44 H44           -3.8856     6.8860    -6.7586 H       
  45 H45           -1.2143     3.6841    -5.9025 H       
  46 H46           -2.6700     4.6798    -5.0018 H       
  47 H47           -1.1209     8.6574    -2.6139 H       
  48 H48            0.4607     6.7761    -2.9510 H       
  49 H49           -5.5137     9.3987    -3.7591 H       
  50 H50           -4.8633     8.3617    -5.0514 H       
  51 H51           -5.3868     7.6407    -3.5105 H       
@<TRIPOS>BOND
   1    1    2 am
   2    1   10 1
   3    1   15 1
   4    2    3 1
   5    2   14 2
   6    3    4 2
   7    3   34 1
   8    4    5 1
   9    4   35 1
  10    5    6 ar
  11    5   10 ar
  12    6    7 ar
  13    6   36 1
  14    7    8 ar
  15    8    9 ar
  16    8   13 ar
  17    9   10 ar
  18    9   22 ar
  19   11   12 ar
  20   11   23 1
  21   11   22 ar
  22   12   13 ar
  23   12   37 1
  24   13   38 1
  25   15   16 ar
  26   15   20 ar
  27   16   17 ar
  28   16   39 1
  29   17   18 ar
  30   17   31 1
  31   18   19 ar
  32   18   21 1
  33   19   20 ar
  34   19   40 1
  35   20   41 1
  36   21   42 1
  37   21   43 1
  38   21   44 1
  39   22   45 1
  40   23   24 ar
  41   23   28 ar
  42   24   25 ar
  43   24   46 1
  44   25   26 ar
  45   26   27 ar
  46   26   29 1
  47   27   28 ar
  48   27   47 1
  49   28   48 1
  50   29   30 1
  51   30   49 1
  52   30   50 1
  53   30   51 1
  54   31   32 2
  55   31   33 2

#	End of record

