#	Name: ASD03320138
#	Creating user name:	WinNT
#	Creation time:	15. 06. 2019 20:36

#	Modifying user name:	WinNT
#	Modification time:	15. 06. 2019 20:36

#	Program:	/corina/corina34_cracker 3.40 0067  02.08.2006

@<TRIPOS>MOLECULE
ASD03320138
  52   55    0    0    0
SMALL
NO_CHARGES


@<TRIPOS>ATOM
   1 C1            -0.0181     1.4709     0.0148 C.2     
   2 C2             0.0015    -0.0045     0.0118 C.ar    
   3 C3             1.2192    -0.6978     0.0013 C.ar    
   4 C4             1.1850    -2.0893    -0.0007 C.ar    
   5 C5            -0.0614    -2.7401     0.0078 C.ar    
   6 N6            -1.1881    -2.0440     0.0176 N.ar    
   7 C7            -1.1932    -0.7273     0.0251 C.ar    
   8 O8             1.0268     2.0928     0.0082 O.2     
   9 N9            -1.1942     2.1292     0.0193 N.am    
  10 N10            2.6868    -4.0136     0.6894 N.pl3   
  11 N11            3.9925    -4.4238     0.3912 N.2     
  12 C12            4.5142    -3.5697    -0.4523 C.2     
  13 C13            3.5683    -2.5821    -0.7277 C.2     
  14 C14            2.4404    -2.8713    -0.0121 C.2     
  15 C15            5.9046    -3.6411    -1.0292 C.3     
  16 N16           -0.1114    -4.1218     0.0055 N.3     
  17 C17           -1.5061    -4.6002     0.0156 C.3     
  18 C18           -1.6860    -5.5106    -1.2173 C.3     
  19 C19           -0.2343    -5.9517    -1.5409 C.3     
  20 C20            0.5673    -4.6746    -1.1860 C.3     
  21 O21           -2.4980    -6.6418    -0.8959 O.3     
  22 C22           -1.2149     3.5249     0.1327 C.ar    
  23 C23           -2.1832     4.2618    -0.5363 C.ar    
  24 C24           -2.2033     5.6379    -0.4236 C.ar    
  25 C25           -1.2565     6.2842     0.3576 C.ar    
  26 C26           -0.2886     5.5487     1.0258 C.ar    
  27 C27           -0.2707     4.1721     0.9187 C.ar    
  28 O28           -1.2769     7.6393     0.4681 O.3     
  29 C29           -0.2723     8.2385     1.2889 C.3     
  30 F30           -0.3874     7.7530     2.5959 F       
  31 F31            0.9931     7.9216     0.7834 F       
  32 Cl32          -0.4874    10.0286     1.2916 Cl      
  33 H33            2.1594    -0.1665    -0.0055 H       
  34 H34           -2.1349    -0.1988     0.0374 H       
  35 H35           -2.0262     1.6363    -0.0560 H       
  36 H36            2.0677    -4.4640     1.2850 H       
  37 H37            3.7035    -1.7385    -1.3884 H       
  38 H38            5.8850    -4.2173    -1.9543 H       
  39 H39            6.2641    -2.6332    -1.2365 H       
  40 H40            6.5703    -4.1245    -0.3142 H       
  41 H41           -1.6970    -5.1675     0.9265 H       
  42 H42           -2.1891    -3.7530    -0.0463 H       
  43 H43           -2.1137    -4.9520    -2.0499 H       
  44 H44            0.0683    -6.7897    -0.9130 H       
  45 H45           -0.1275    -6.1988    -2.5972 H       
  46 H46            0.5290    -3.9615    -2.0095 H       
  47 H47            1.6008    -4.9284    -0.9504 H       
  48 H48           -2.6419    -7.2460    -1.6371 H       
  49 H49           -2.9202     3.7589    -1.1448 H       
  50 H50           -2.9562     6.2113    -0.9441 H       
  51 H51            0.4485     6.0525     1.6336 H       
  52 H52            0.4800     3.5992     1.4428 H       
@<TRIPOS>BOND
   1    1    2 1
   2    1    8 2
   3    1    9 am
   4    2    3 ar
   5    2    7 ar
   6    3    4 ar
   7    3   33 1
   8    4    5 ar
   9    4   14 1
  10    5    6 ar
  11    5   16 1
  12    6    7 ar
  13    7   34 1
  14    9   22 1
  15    9   35 1
  16   10   11 1
  17   10   14 1
  18   10   36 1
  19   11   12 2
  20   12   13 1
  21   12   15 1
  22   13   14 2
  23   13   37 1
  24   15   38 1
  25   15   39 1
  26   15   40 1
  27   16   17 1
  28   16   20 1
  29   17   18 1
  30   17   41 1
  31   17   42 1
  32   18   19 1
  33   18   21 1
  34   18   43 1
  35   19   20 1
  36   19   44 1
  37   19   45 1
  38   20   46 1
  39   20   47 1
  40   21   48 1
  41   22   23 ar
  42   22   27 ar
  43   23   24 ar
  44   23   49 1
  45   24   25 ar
  46   24   50 1
  47   25   26 ar
  48   25   28 1
  49   26   27 ar
  50   26   51 1
  51   27   52 1
  52   28   29 1
  53   29   30 1
  54   29   31 1
  55   29   32 1

#	End of record

