#	Name: ASD01150039
#	Creating user name:	WinNT
#	Creation time:	15. 06. 2019 19:03

#	Modifying user name:	WinNT
#	Modification time:	15. 06. 2019 19:03

#	Program:	/corina/corina34_cracker 3.40 0067  02.08.2006

@<TRIPOS>MOLECULE
ASD01150039
  46   49    0    0    0
SMALL
NO_CHARGES


@<TRIPOS>ATOM
   1 C1            -0.0159     1.3216     0.0093 C.ar    
   2 N2             0.0021    -0.0041     0.0020 N.ar    
   3 C3            -1.1220    -0.7020     0.0094 C.ar    
   4 C4            -2.3401    -0.0262     0.0252 C.ar    
   5 C5            -2.3212     1.3815     0.0325 C.ar    
   6 N6            -1.1503     2.0072     0.0293 N.ar    
   7 C7            -3.6226    -0.7698     0.0334 C.ar    
   8 C8            -3.8482    -1.7860    -0.8938 C.ar    
   9 C9            -5.0440    -2.4748    -0.8814 C.ar    
  10 C10           -6.0180    -2.1582     0.0485 C.ar    
  11 C11           -5.7997    -1.1508     0.9711 C.ar    
  12 C12           -4.6054    -0.4595     0.9722 C.ar    
  13 C13           -7.3221    -2.9134     0.0563 C.3     
  14 F14           -7.2114    -4.0265     0.8965 F       
  15 F15           -8.3424    -2.0772     0.5219 F       
  16 F16           -7.6230    -3.3377    -1.2425 F       
  17 S17            1.5128     2.1977    -0.0006 S.3     
  18 N18           -3.5029     2.1006     0.0481 N.pl3   
  19 C19           -3.4690     3.5652     0.0556 C.3     
  20 C20           -3.3526     4.0941     1.5035 C.3     
  21 C21           -4.6437     4.9416     1.7186 C.3     
  22 C22           -4.4384     6.2002     0.8214 C.3     
  23 C23           -4.5549     5.6713    -0.6264 C.3     
  24 C24           -4.8194     4.1429    -0.4677 C.3     
  25 C25           -5.6704     4.1312     0.8511 C.3     
  26 C26            2.6717     0.8075    -0.0191 C.3     
  27 H27           -1.0956    -1.7817     0.0030 H       
  28 H28           -3.0888    -2.0335    -1.6208 H       
  29 H29           -5.2199    -3.2622    -1.5993 H       
  30 H30           -6.5638    -0.9078     1.6946 H       
  31 H31           -4.4360     0.3268     1.6929 H       
  32 H32           -4.3539     1.6352     0.0541 H       
  33 H33           -2.6383     3.9284    -0.5495 H       
  34 H34           -3.3206     3.2645     2.2097 H       
  35 H35           -2.4658     4.7190     1.6096 H       
  36 H36           -4.9193     5.1351     2.7552 H       
  37 H37           -5.2150     6.9389     1.0197 H       
  38 H38           -3.4514     6.6306     0.9905 H       
  39 H39           -5.3887     6.1500    -1.1399 H       
  40 H40           -3.6250     5.8416    -1.1691 H       
  41 H41           -5.2482     3.6409    -1.3350 H       
  42 H42           -5.8200     3.1210     1.2322 H       
  43 H43           -6.6148     4.6626     0.7329 H       
  44 H44            3.6937     1.1865    -0.0268 H       
  45 H45            2.5182     0.1947     0.8691 H       
  46 H46            2.5012     0.2042    -0.9108 H       
@<TRIPOS>BOND
   1    1    2 ar
   2    1   17 1
   3    1    6 ar
   4    2    3 ar
   5    3    4 ar
   6    3   27 1
   7    4    5 ar
   8    4    7 1
   9    5    6 ar
  10    5   18 1
  11    7    8 ar
  12    7   12 ar
  13    8    9 ar
  14    8   28 1
  15    9   10 ar
  16    9   29 1
  17   10   11 ar
  18   10   13 1
  19   11   12 ar
  20   11   30 1
  21   12   31 1
  22   13   14 1
  23   13   15 1
  24   13   16 1
  25   17   26 1
  26   18   19 1
  27   18   32 1
  28   19   20 1
  29   19   24 1
  30   19   33 1
  31   20   21 1
  32   20   34 1
  33   20   35 1
  34   21   22 1
  35   21   25 1
  36   21   36 1
  37   22   23 1
  38   22   37 1
  39   22   38 1
  40   23   24 1
  41   23   39 1
  42   23   40 1
  43   24   25 1
  44   24   41 1
  45   25   42 1
  46   25   43 1
  47   26   44 1
  48   26   45 1
  49   26   46 1

#	End of record

