#	Name: ASD04590183
#	Creating user name:	WinNT
#	Creation time:	15. 06. 2019 20:50

#	Modifying user name:	WinNT
#	Modification time:	15. 06. 2019 20:50

#	Program:	/corina/corina34_cracker 3.40 0067  02.08.2006

@<TRIPOS>MOLECULE
ASD04590183
  48   50    0    0    0
SMALL
NO_CHARGES


@<TRIPOS>ATOM
   1 N1            -0.0169     1.3950     0.0097 N.pl3   
   2 N2             0.0021    -0.0041     0.0020 N.2     
   3 C3             1.2465    -0.4104    -0.0120 C.2     
   4 C4             2.0788     0.7379    -0.0138 C.2     
   5 C5             1.2485     1.8412     0.0000 C.2     
   6 N6             1.6782    -1.7398    -0.0229 N.am    
   7 C7             0.7763    -2.7413    -0.0197 C.2     
   8 C8             3.5511     0.7512    -0.0274 C.2     
   9 N9             4.2144     1.9244    -0.0275 N.am    
  10 C10            5.6793     1.9376    -0.0410 C.3     
  11 C11            6.1832     3.2463     0.5708 C.3     
  12 C12            7.7131     3.2601     0.5567 C.3     
  13 C13            8.2109     3.1464    -0.8856 C.3     
  14 C14            7.7070     1.8376    -1.4973 C.3     
  15 C15            6.1771     1.8239    -1.4832 C.3     
  16 O16            4.1686    -0.2966    -0.0385 O.2     
  17 C17            1.2417    -4.1746    -0.0314 C.3     
  18 C18            0.0270    -5.1078    -0.0250 C.3     
  19 C19            0.5074    -6.5585    -0.1164 C.3     
  20 O20            1.2927    -6.7252    -1.2987 O.3     
  21 C21            2.4672    -5.9122    -1.3385 C.3     
  22 C22            2.0655    -4.4355    -1.2961 C.3     
  23 O23           -0.4100    -2.4889    -0.0074 O.2     
  24 O24            7.7175     4.2496    -1.6481 O.3     
  25 H25           -0.8124     1.9499     0.0167 H       
  26 H26            1.5607     2.8751     0.0019 H       
  27 H27            2.6270    -1.9416    -0.0327 H       
  28 H28            3.7219     2.7600    -0.0186 H       
  29 H29            6.0556     1.0960     0.5407 H       
  30 H30            5.8069     4.0878    -0.0109 H       
  31 H31            5.8286     3.3273     1.5983 H       
  32 H32            8.0720     4.1924     0.9925 H       
  33 H33            8.0894     2.4186     1.1384 H       
  34 H34            9.3008     3.1562    -0.8956 H       
  35 H35            8.0616     1.7566    -2.5248 H       
  36 H36            8.0833     0.9961    -0.9157 H       
  37 H37            5.8181     0.8915    -1.9191 H       
  38 H38            5.8008     2.6654    -2.0649 H       
  39 H39            1.8536    -4.3664     0.8500 H       
  40 H40           -0.5350    -4.9677     0.8984 H       
  41 H41           -0.6112    -4.8809    -0.8790 H       
  42 H42            1.1124    -6.7969     0.7584 H       
  43 H43           -0.3542    -7.2250    -0.1554 H       
  44 H44            3.0978    -6.1421    -0.4797 H       
  45 H45            3.0173    -6.1130    -2.2578 H       
  46 H46            1.4685    -4.1950    -2.1758 H       
  47 H47            2.9613    -3.8146    -1.2819 H       
  48 H48            7.9944     4.2425    -2.5746 H       
@<TRIPOS>BOND
   1    1    2 1
   2    1    5 1
   3    1   25 1
   4    2    3 2
   5    3    4 1
   6    3    6 1
   7    4    5 2
   8    4    8 1
   9    5   26 1
  10    6    7 am
  11    6   27 1
  12    7   17 1
  13    7   23 2
  14    8    9 am
  15    8   16 2
  16    9   10 1
  17    9   28 1
  18   10   11 1
  19   10   15 1
  20   10   29 1
  21   11   12 1
  22   11   30 1
  23   11   31 1
  24   12   13 1
  25   12   32 1
  26   12   33 1
  27   13   14 1
  28   13   24 1
  29   13   34 1
  30   14   15 1
  31   14   35 1
  32   14   36 1
  33   15   37 1
  34   15   38 1
  35   17   18 1
  36   17   22 1
  37   17   39 1
  38   18   19 1
  39   18   40 1
  40   18   41 1
  41   19   20 1
  42   19   42 1
  43   19   43 1
  44   20   21 1
  45   21   22 1
  46   21   44 1
  47   21   45 1
  48   22   46 1
  49   22   47 1
  50   24   48 1

#	End of record

