#	Name: ASD01151022
#	Creating user name:	WinNT
#	Creation time:	15. 06. 2019 19:05

#	Modifying user name:	WinNT
#	Modification time:	15. 06. 2019 19:05

#	Program:	/corina/corina34_cracker 3.40 0067  02.08.2006

@<TRIPOS>MOLECULE
ASD01151022
  62   64    0    0    0
SMALL
NO_CHARGES


@<TRIPOS>ATOM
   1 C1            -0.2330     1.1105     0.0477 C.2     
   2 C2            -0.3619    -0.2619    -0.1079 C.2     
   3 N3            -1.6581    -0.5207    -0.3147 N.2     
   4 C4            -2.3416     0.5937    -0.2982 C.2     
   5 N5            -1.5140     1.6294    -0.0736 N.pl3   
   6 C6            -3.8318     0.7006    -0.4953 C.3     
   7 C7            -1.8928     3.0417     0.0175 C.3     
   8 C8             0.9608     1.8333     0.2875 C.2     
   9 O9             0.9222     3.1762     0.4172 O.3     
  10 O10            2.0217     1.2437     0.3765 O.2     
  11 C11            2.1642     3.8407     0.6578 C.3     
  12 C12            3.1223     3.5672    -0.5033 C.3     
  13 N13            0.6673    -1.1971    -0.0582 N.am    
  14 C14           -4.5409     0.4698     0.8407 C.3     
  15 C15            0.3968    -2.5065    -0.2273 C.2     
  16 C16            1.5114    -3.5193    -0.1734 C.3     
  17 O17           -0.7437    -2.8698    -0.4228 O.2     
  18 O18            0.9677    -4.8409    -0.2626 O.3     
  19 C19            1.8460    -5.8471    -0.5248 C.ar    
  20 C20            3.1079    -5.5738    -1.0389 C.ar    
  21 O21            3.4968    -4.2933    -1.2869 O.3     
  22 C22            2.4598    -3.3089    -1.3615 C.3     
  23 C23            1.4723    -7.1592    -0.2749 C.ar    
  24 C24            2.3523    -8.1918    -0.5379 C.ar    
  25 C25            3.6071    -7.9201    -1.0510 C.ar    
  26 C26            3.9857    -6.6150    -1.3021 C.ar    
  27 C27           -1.9618     3.6428    -1.3878 C.3     
  28 C28           -2.4862     5.0777    -1.3035 C.3     
  29 C29           -0.5641     3.6464    -2.0102 C.3     
  30 C30            1.9223     5.3469     0.7755 C.3     
  31 C31            2.7778     3.3195     1.9588 C.3     
  32 H32           -4.0784     1.6938    -0.8706 H       
  33 H33           -4.1581    -0.0508    -1.2144 H       
  34 H34           -2.8679     3.1261     0.4971 H       
  35 H35           -1.1502     3.5797     0.6068 H       
  36 H36            2.6851     3.9386    -1.4302 H       
  37 H37            4.0696     4.0741    -0.3198 H       
  38 H38            3.2946     2.4942    -0.5872 H       
  39 H39            1.5795    -0.9065     0.0982 H       
  40 H40           -4.3653    -0.5533     1.1731 H       
  41 H41           -4.1509     1.1653     1.5839 H       
  42 H42           -5.6114     0.6329     0.7168 H       
  43 H43            2.0619    -3.4106     0.7610 H       
  44 H44            1.9100    -3.4242    -2.2956 H       
  45 H45            2.8958    -2.3111    -1.3117 H       
  46 H46            0.4928    -7.3742     0.1260 H       
  47 H47            2.0595    -9.2127    -0.3421 H       
  48 H48            4.2926    -8.7292    -1.2557 H       
  49 H49            4.9664    -6.4054    -1.7031 H       
  50 H50           -2.6331     3.0463    -2.0055 H       
  51 H51           -1.8149     5.6741    -0.6857 H       
  52 H52           -2.5354     5.5059    -2.3046 H       
  53 H53           -3.4819     5.0751    -0.8601 H       
  54 H54           -0.6068     4.1084    -2.9965 H       
  55 H55            0.1159     4.2119    -1.3731 H       
  56 H56           -0.2057     2.6213    -2.1043 H       
  57 H57            1.2398     5.5417     1.6027 H       
  58 H58            2.8697     5.8537     0.9591 H       
  59 H59            1.4852     5.7182    -0.1514 H       
  60 H60            2.9501     2.2465     1.8750 H       
  61 H61            3.7252     3.8264     2.1424 H       
  62 H62            2.0953     3.5143     2.7861 H       
@<TRIPOS>BOND
   1    1    2 2
   2    1    8 1
   3    1    5 1
   4    2    3 1
   5    2   13 1
   6    3    4 2
   7    4    5 1
   8    4    6 1
   9    5    7 1
  10    6   14 1
  11    6   32 1
  12    6   33 1
  13    7   27 1
  14    7   34 1
  15    7   35 1
  16    8    9 1
  17    8   10 2
  18    9   11 1
  19   11   12 1
  20   11   30 1
  21   11   31 1
  22   12   36 1
  23   12   37 1
  24   12   38 1
  25   13   15 am
  26   13   39 1
  27   14   40 1
  28   14   41 1
  29   14   42 1
  30   15   16 1
  31   15   17 2
  32   16   18 1
  33   16   22 1
  34   16   43 1
  35   18   19 1
  36   19   20 ar
  37   19   23 ar
  38   20   21 1
  39   20   26 ar
  40   21   22 1
  41   22   44 1
  42   22   45 1
  43   23   24 ar
  44   23   46 1
  45   24   25 ar
  46   24   47 1
  47   25   26 ar
  48   25   48 1
  49   26   49 1
  50   27   28 1
  51   27   29 1
  52   27   50 1
  53   28   51 1
  54   28   52 1
  55   28   53 1
  56   29   54 1
  57   29   55 1
  58   29   56 1
  59   30   57 1
  60   30   58 1
  61   30   59 1
  62   31   60 1
  63   31   61 1
  64   31   62 1

#	End of record

