#	Name: ASD01840260
#	Creating user name:	WinNT
#	Creation time:	15. 06. 2019 19:37

#	Modifying user name:	WinNT
#	Modification time:	15. 06. 2019 19:37

#	Program:	/corina/corina34_cracker 3.40 0067  02.08.2006

@<TRIPOS>MOLECULE
ASD01840260
  40   42    0    0    0
SMALL
NO_CHARGES


@<TRIPOS>ATOM
   1 C1            -0.2554    -4.2141     2.3491 C.3     
   2 O2             0.5206    -5.3833     2.0790 O.3     
   3 C3             1.0571    -5.4941     0.8347 C.ar    
   4 C4             0.8460    -4.4961    -0.1040 C.ar    
   5 C5             1.3927    -4.6105    -1.3683 C.ar    
   6 C6             2.1500    -5.7187    -1.6983 C.ar    
   7 C7             2.7444    -5.8398    -3.0778 C.3     
   8 N8             4.0763    -5.2298    -3.0909 N.am    
   9 C9             4.8021    -5.2205    -4.2265 C.2     
  10 O10            4.3509    -5.7190    -5.2414 O.2     
  11 C11            6.1318    -4.6115    -4.2395 C.2     
  12 S12            6.8968    -3.8691    -2.8479 S.3     
  13 C13            8.3402    -3.4617    -3.7630 C.ar    
  14 C14            9.5177    -2.8120    -3.3779 C.ar    
  15 N15           10.4846    -2.6093    -4.2432 N.ar    
  16 C16           10.3950    -3.0036    -5.5022 C.ar    
  17 C17            9.2875    -3.6445    -5.9687 C.ar    
  18 C18            9.2119    -4.0836    -7.4084 C.3     
  19 C19            8.2094    -3.8937    -5.0885 C.ar    
  20 C20            6.9382    -4.5517    -5.3285 C.2     
  21 N21            6.5777    -5.0709    -6.5650 N.pl3   
  22 C22            2.3635    -6.7165    -0.7647 C.ar    
  23 C23            1.8230    -6.6051     0.5033 C.ar    
  24 F24            2.0353    -7.5773     1.4170 F       
  25 H25            0.3652    -3.3278     2.2178 H       
  26 H26           -1.0998    -4.1716     1.6612 H       
  27 H27           -0.6235    -4.2513     3.3744 H       
  28 H28            0.2542    -3.6298     0.1524 H       
  29 H29            1.2277    -3.8330    -2.0995 H       
  30 H30            2.8244    -6.8928    -3.3478 H       
  31 H31            2.1034    -5.3282    -3.7958 H       
  32 H32            4.4358    -4.8326    -2.2822 H       
  33 H33            9.6325    -2.4733    -2.3589 H       
  34 H34           11.2179    -2.8130    -6.1753 H       
  35 H35            9.5038    -5.1310    -7.4845 H       
  36 H36            8.1913    -3.9635    -7.7717 H       
  37 H37            9.8860    -3.4739    -8.0101 H       
  38 H38            5.6424    -5.2202    -6.7744 H       
  39 H39            7.2613    -5.2843    -7.2193 H       
  40 H40            2.9559    -7.5813    -1.0249 H       
@<TRIPOS>BOND
   1    1    2 1
   2    1   25 1
   3    1   26 1
   4    1   27 1
   5    2    3 1
   6    3   23 ar
   7    3    4 ar
   8    4    5 ar
   9    4   28 1
  10    5    6 ar
  11    5   29 1
  12    6    7 1
  13    6   22 ar
  14    7    8 1
  15    7   30 1
  16    7   31 1
  17    8    9 am
  18    8   32 1
  19    9   10 2
  20    9   11 1
  21   11   20 2
  22   11   12 1
  23   12   13 1
  24   13   19 ar
  25   13   14 ar
  26   14   15 ar
  27   14   33 1
  28   15   16 ar
  29   16   17 ar
  30   16   34 1
  31   17   18 1
  32   17   19 ar
  33   18   35 1
  34   18   36 1
  35   18   37 1
  36   19   20 1
  37   20   21 1
  38   21   38 1
  39   21   39 1
  40   22   23 ar
  41   22   40 1
  42   23   24 1

#	End of record

