#	Name: ASD05060005
#	Creating user name:	WinNT
#	Creation time:	15. 06. 2019 20:56

#	Modifying user name:	WinNT
#	Modification time:	15. 06. 2019 20:56

#	Program:	/corina/corina34_cracker 3.40 0067  02.08.2006

@<TRIPOS>MOLECULE
ASD05060005
 169  169    0    0    0
SMALL
NO_CHARGES


@<TRIPOS>ATOM
   1 N1            -0.3940     3.8244    -1.7924 N.3     
   2 N2             0.1169     2.4959    -1.4973 N.3     
   3 C3            -0.3741     2.0161    -0.1985 C.3     
   4 C4            -1.8611     2.2374    -0.1080 C.2     
   5 N5            -2.6242     1.3422     0.5830 N.am    
   6 C6            -4.0745     1.6334     0.6261 C.3     
   7 C7            -4.7954     0.6258    -0.2314 C.2     
   8 N8            -6.0785     0.8724    -0.6100 N.am    
   9 C9            -6.7334    -0.1552    -1.4431 C.3     
  10 C10           -7.6009     0.5278    -2.4686 C.2     
  11 N11           -8.0314    -0.1860    -3.5487 N.am    
  12 C12           -8.8734     0.5545    -4.5142 C.3     
  13 C13           -8.4137     0.2204    -5.9097 C.2     
  14 N14           -8.5298     1.1577    -6.8890 N.am    
  15 C15           -8.0631     0.7719    -8.2352 C.3     
  16 C16           -7.2973     1.9234    -8.8342 C.2     
  17 N17           -6.4632     1.6829    -9.8872 N.am    
  18 C18           -5.7517     2.8628   -10.4253 C.3     
  19 C19           -4.2736     2.5699   -10.4488 C.2     
  20 N20           -3.3935     3.6039   -10.3604 N.am    
  21 C21           -1.9582     3.2602   -10.3835 C.3     
  22 C22           -1.1728     4.4149    -9.8167 C.2     
  23 N23           -0.1870     4.1600    -8.9085 N.am    
  24 C24            0.5315     5.3450    -8.3900 C.3     
  25 C25            1.0557     5.0262    -7.0134 C.2     
  26 C26            2.1552     4.0397    -6.8479 C.2     
  27 C27            2.6833     3.7210    -5.4731 C.3     
  28 N28            1.9669     4.5470    -4.4814 N.am    
  29 C29            1.3928     3.8880    -3.4391 C.2     
  30 C30            0.6468     4.6709    -2.3904 C.3     
  31 O31            1.4805     2.6813    -3.3550 O.2     
  32 O32            2.6256     3.4926    -7.8166 O.2     
  33 O33            0.5830     5.5723    -6.0453 O.2     
  34 O34           -1.4134     5.5523   -10.1619 O.2     
  35 O35           -3.8742     1.4287   -10.5447 O.2     
  36 O36           -7.4198     3.0444    -8.3878 O.2     
  37 O37           -7.9456    -0.8708    -6.1569 O.2     
  38 O38           -7.9115     1.6926    -2.3359 O.2     
  39 O39           -4.2379    -0.3933    -0.5803 O.2     
  40 O40           -2.3732     3.1986    -0.6418 O.2     
  41 C41            1.6994     5.6842    -9.3184 C.3     
  42 C42            1.1655     5.9865   -10.7200 C.3     
  43 C43            2.4399     6.9098    -8.7795 C.3     
  44 C44           -0.0021     5.8972    -3.0355 C.3     
  45 C45           -0.6523     6.7596    -1.9517 C.3     
  46 C46            0.4303     7.3152    -1.0243 C.3     
  47 C47           -1.4069     7.9183    -2.6065 C.3     
  48 C48           -6.2399     3.1518   -11.8463 C.3     
  49 C49           -7.7156     3.5539   -11.8067 C.3     
  50 C50           -7.8638     4.8760   -11.0510 C.3     
  51 C51           -8.2369     3.7218   -13.2353 C.3     
  52 C52           -0.0718     0.5227    -0.0596 C.3     
  53 C53            1.4410     0.3155     0.0380 C.3     
  54 C54            1.7360    -1.1560     0.3357 C.3     
  55 C55            2.0962     0.7090    -1.2874 C.3     
  56 C56            2.4541     2.2395    -5.1671 C.3     
  57 C57            3.1296     1.3862    -6.2426 C.3     
  58 C58            2.8312    -0.0692    -5.9899 C.2     
  59 O59            2.2260    -0.3983    -4.9973 O.2     
  60 O60            3.2377    -0.9998    -6.8676 O.3     
  61 C61           -5.6689    -0.9960    -2.1506 C.3     
  62 C62           -6.3500    -2.0306    -3.0488 C.3     
  63 C63           -5.4666    -3.2754    -3.1536 C.3     
  64 C64           -4.7829    -0.0852    -3.0029 C.3     
  65 C65           -4.5755     1.5322     2.0682 C.3     
  66 C66           -3.9194     2.6253     2.9141 C.3     
  67 C67           -4.4204     2.5240     4.3561 C.3     
  68 C68           -3.7643     3.6171     5.2020 C.3     
  69 N69           -4.2454     3.5198     6.5866 N.3     
  70 C70           -7.1502    -0.4514    -8.1302 C.3     
  71 C71           -6.0236    -0.1568    -7.1736 C.2     
  72 O72           -5.9004     0.9554    -6.7059 O.2     
  73 N73           -5.1531    -1.1293    -6.8377 N.am    
  74 C74          -10.8230     0.5682    -2.9818 C.2     
  75 C75          -10.3364     0.1408    -4.3426 C.3     
  76 O76          -10.0763     1.1446    -2.2268 O.2     
  77 O77          -12.0860     0.3085    -2.6087 O.3     
  78 C78           -2.2862     2.2211    -8.1560 C.2     
  79 C79           -1.7165     2.0101    -9.5352 C.3     
  80 O80           -2.7484     3.2950    -7.8511 O.2     
  81 O81           -2.2801     1.2160    -7.2664 O.3     
  82 H82           -1.2067     3.7751    -2.3884 H       
  83 H83           -0.1160     1.8470    -2.2340 H       
  84 H84            0.1237     2.5629     0.6023 H       
  85 H85           -2.2408     0.5645     1.0178 H       
  86 H86           -4.2574     2.6373     0.2428 H       
  87 H87           -6.5404     1.6833    -0.3453 H       
  88 H88           -7.3493    -0.7974    -0.8135 H       
  89 H89           -7.8001    -1.1194    -3.6758 H       
  90 H90           -8.7711     1.6260    -4.3421 H       
  91 H91           -8.9011     2.0360    -6.7114 H       
  92 H92           -8.9208     0.5367    -8.8654 H       
  93 H93           -6.3442     0.7949   -10.2588 H       
  94 H94           -5.9429     3.7265    -9.7885 H       
  95 H95           -3.6949     4.5229   -10.2861 H       
  96 H96           -1.6437     3.0736   -11.4104 H       
  97 H97            0.0293     3.2591    -8.6212 H       
  98 H98           -0.1524     6.1919    -8.3340 H       
  99 H99            3.7495     3.9433    -5.4312 H       
 100 H100           1.9087     5.5113    -4.5685 H       
 101 H101           1.3419     4.9938    -1.6154 H       
 102 H102           2.3841     4.8374    -9.3652 H       
 103 H103           0.4808     6.8333   -10.6732 H       
 104 H104           1.9975     6.2282   -11.3814 H       
 105 H105           0.6379     5.1134   -11.1040 H       
 106 H106           2.8203     6.6944    -7.7809 H       
 107 H107           3.2720     7.1514    -9.4409 H       
 108 H108           1.7552     7.7566    -8.7327 H       
 109 H109           0.7586     6.4796    -3.5554 H       
 110 H110          -0.7618     5.5742    -3.7472 H       
 111 H111          -1.3492     6.1525    -1.3739 H       
 112 H112          -0.0329     7.9296    -0.2522 H       
 113 H113           0.9679     6.4897    -0.5578 H       
 114 H114           1.1272     7.9223    -1.6022 H       
 115 H115          -2.1782     7.5225    -3.2672 H       
 116 H116          -1.8701     8.5327    -1.8344 H       
 117 H117          -0.7100     8.5254    -3.1843 H       
 118 H118          -5.6531     3.9649   -12.2737 H       
 119 H119          -6.1231     2.2582   -12.4594 H       
 120 H120          -8.2898     2.7789   -11.2991 H       
 121 H121          -7.2896     5.6510   -11.5586 H       
 122 H122          -8.9151     5.1624   -11.0228 H       
 123 H123          -7.4924     4.7564   -10.0332 H       
 124 H124          -8.1312     2.7800   -13.7737 H       
 125 H125          -9.2882     4.0083   -13.2071 H       
 126 H126          -7.6626     4.4969   -13.7429 H       
 127 H127          -0.5502     0.1374     0.8408 H       
 128 H128          -0.4558    -0.0083    -0.9306 H       
 129 H129           1.8417     0.9358     0.8397 H       
 130 H130           1.3353    -1.7763    -0.4661 H       
 131 H131           2.8137    -1.3036     0.4052 H       
 132 H132           1.2692    -1.4364     1.2799 H       
 133 H133           2.0002     1.7847    -1.4349 H       
 134 H134           3.1518     0.4381    -1.2654 H       
 135 H135           1.6034     0.1847    -2.1061 H       
 136 H136           2.8796     1.9997    -4.1927 H       
 137 H137           1.3842     2.0318    -5.1575 H       
 138 H138           2.7491     1.6701    -7.2237 H       
 139 H139           4.2072     1.5471    -6.2103 H       
 140 H140           3.0230    -1.9202    -6.6626 H       
 141 H141          -5.0564    -1.5069    -1.4077 H       
 142 H142          -7.3143    -2.3044    -2.6209 H       
 143 H143          -6.5002    -1.6070    -4.0418 H       
 144 H144          -4.5022    -3.0015    -3.5815 H       
 145 H145          -5.3164    -3.6990    -2.1606 H       
 146 H146          -5.9518    -4.0124    -3.7935 H       
 147 H147          -4.2977     0.6519    -2.3630 H       
 148 H148          -4.0245    -0.6842    -3.5070 H       
 149 H149          -5.3954     0.4257    -3.7458 H       
 150 H150          -5.6579     1.6592     2.0865 H       
 151 H151          -4.3175     0.5542     2.4747 H       
 152 H152          -2.8370     2.4982     2.8958 H       
 153 H153          -4.1774     3.6032     2.5076 H       
 154 H154          -5.5029     2.6510     4.3744 H       
 155 H155          -4.1625     1.5460     4.7626 H       
 156 H156          -2.6819     3.4901     5.1837 H       
 157 H157          -4.0223     4.5950     4.7956 H       
 158 H158          -4.0756     2.5999     6.9646 H       
 159 H159          -3.8263     4.2318     7.1659 H       
 160 H160          -7.7242    -1.3027    -7.7645 H       
 161 H161          -6.7406    -0.6845    -9.1131 H       
 162 H162          -5.2517    -2.0189    -7.2118 H       
 163 H163          -4.4280    -0.9397    -6.2220 H       
 164 H164         -10.9420     0.6197    -5.1120 H       
 165 H165         -10.4210    -0.9420    -4.4351 H       
 166 H166         -12.3522     0.6020    -1.7266 H       
 167 H167          -2.2036     1.1542   -10.0024 H       
 168 H168          -0.6453     1.8228    -9.4611 H       
 169 H169          -2.6564     1.3991    -6.3946 H       
@<TRIPOS>BOND
   1    1    2 1
   2    1   30 1
   3    1   82 1
   4    2    3 1
   5    2   83 1
   6    3    4 1
   7    3   52 1
   8    3   84 1
   9    4    5 am
  10    4   40 2
  11    5    6 1
  12    5   85 1
  13    6    7 1
  14    6   65 1
  15    6   86 1
  16    7    8 am
  17    7   39 2
  18    8    9 1
  19    8   87 1
  20    9   10 1
  21    9   61 1
  22    9   88 1
  23   10   11 am
  24   10   38 2
  25   11   12 1
  26   11   89 1
  27   12   13 1
  28   12   75 1
  29   12   90 1
  30   13   14 am
  31   13   37 2
  32   14   15 1
  33   14   91 1
  34   15   16 1
  35   15   70 1
  36   15   92 1
  37   16   17 am
  38   16   36 2
  39   17   18 1
  40   17   93 1
  41   18   19 1
  42   18   48 1
  43   18   94 1
  44   19   20 am
  45   19   35 2
  46   20   21 1
  47   20   95 1
  48   21   22 1
  49   21   79 1
  50   21   96 1
  51   22   23 am
  52   22   34 2
  53   23   24 1
  54   23   97 1
  55   24   25 1
  56   24   41 1
  57   24   98 1
  58   25   26 1
  59   25   33 2
  60   26   27 1
  61   26   32 2
  62   27   28 1
  63   27   56 1
  64   27   99 1
  65   28   29 am
  66   28  100 1
  67   29   30 1
  68   29   31 2
  69   30   44 1
  70   30  101 1
  71   41   42 1
  72   41   43 1
  73   41  102 1
  74   42  103 1
  75   42  104 1
  76   42  105 1
  77   43  106 1
  78   43  107 1
  79   43  108 1
  80   44   45 1
  81   44  109 1
  82   44  110 1
  83   45   46 1
  84   45   47 1
  85   45  111 1
  86   46  112 1
  87   46  113 1
  88   46  114 1
  89   47  115 1
  90   47  116 1
  91   47  117 1
  92   48   49 1
  93   48  118 1
  94   48  119 1
  95   49   50 1
  96   49   51 1
  97   49  120 1
  98   50  121 1
  99   50  122 1
 100   50  123 1
 101   51  124 1
 102   51  125 1
 103   51  126 1
 104   52   53 1
 105   52  127 1
 106   52  128 1
 107   53   54 1
 108   53   55 1
 109   53  129 1
 110   54  130 1
 111   54  131 1
 112   54  132 1
 113   55  133 1
 114   55  134 1
 115   55  135 1
 116   56   57 1
 117   56  136 1
 118   56  137 1
 119   57   58 1
 120   57  138 1
 121   57  139 1
 122   58   59 2
 123   58   60 1
 124   60  140 1
 125   61   62 1
 126   61   64 1
 127   61  141 1
 128   62   63 1
 129   62  142 1
 130   62  143 1
 131   63  144 1
 132   63  145 1
 133   63  146 1
 134   64  147 1
 135   64  148 1
 136   64  149 1
 137   65   66 1
 138   65  150 1
 139   65  151 1
 140   66   67 1
 141   66  152 1
 142   66  153 1
 143   67   68 1
 144   67  154 1
 145   67  155 1
 146   68   69 1
 147   68  156 1
 148   68  157 1
 149   69  158 1
 150   69  159 1
 151   70   71 1
 152   70  160 1
 153   70  161 1
 154   71   72 2
 155   71   73 am
 156   73  162 1
 157   73  163 1
 158   74   75 1
 159   74   76 2
 160   74   77 1
 161   75  164 1
 162   75  165 1
 163   77  166 1
 164   78   79 1
 165   78   80 2
 166   78   81 1
 167   79  167 1
 168   79  168 1
 169   81  169 1

#	End of record

