#	Name: ASD03910064
#	Creating user name:	WinNT
#	Creation time:	15. 06. 2019 20:47

#	Modifying user name:	WinNT
#	Modification time:	15. 06. 2019 20:47

#	Program:	/corina/corina34_cracker 3.40 0067  02.08.2006

@<TRIPOS>MOLECULE
ASD03910064
  71   73    0    0    0
SMALL
NO_CHARGES


@<TRIPOS>ATOM
   1 C1             0.4206    18.4668    -2.5614 C.ar    
   2 C2             1.5777    19.2188    -2.6492 C.ar    
   3 C3             2.8121    18.5956    -2.6542 C.ar    
   4 C4             2.8929    17.2193    -2.5720 C.ar    
   5 C5             1.7327    16.4612    -2.4838 C.ar    
   6 C6             0.4947    17.0905    -2.4728 C.ar    
   7 N7             1.8110    15.0666    -2.4004 N.am    
   8 C8             0.8897    14.3809    -1.6951 C.2     
   9 O9             0.0498    14.9766    -1.0542 O.2     
  10 C10           -0.2210    12.3572    -0.8424 C.ar    
  11 C11           -1.4634    12.1188    -1.4003 C.ar    
  12 C12           -2.4941    11.6397    -0.6151 C.ar    
  13 C13           -2.2817    11.3978     0.7344 C.ar    
  14 C14           -1.0342    11.6378     1.2918 C.ar    
  15 C15           -0.0068    12.1170     0.5023 C.ar    
  16 O16           -3.2941    10.9269     1.5090 O.3     
  17 C17           -2.9980    10.6823     2.8855 C.3     
  18 C18           -1.9723     9.5848     3.0053 C.2     
  19 C19           -0.9226    19.1501    -2.5562 C.3     
  20 C20            4.0707    19.4190    -2.7500 C.3     
  21 O21           -1.1281     9.6361     3.8746 O.2     
  22 N22           -1.9930     8.5463     2.1465 N.am    
  23 C23            0.9033    12.8740    -1.7026 C.3     
  24 C24           -0.9401     7.5291     2.2016 C.3     
  25 C25            0.2008     7.9380     1.3059 C.2     
  26 O26            0.0279     8.7741     0.4509 O.2     
  27 O27            1.4090     7.3734     1.4579 O.3     
  28 C28           -1.5027     6.1867     1.7302 C.3     
  29 C29           -2.4741    11.9682     3.5485 C.3     
  30 C30           -3.4603    12.3121     4.6838 C.3     
  31 C31           -4.1285    10.9582     5.0295 C.3     
  32 C32           -4.2842    10.2883     3.6408 C.3     
  33 C33           -2.6003     5.7276     2.6922 C.3     
  34 C34           -3.0642     4.3224     2.3035 C.3     
  35 C35           -2.0888     6.3443     0.3257 C.3     
  36 H36            1.5173    20.2951    -2.7142 H       
  37 H37            3.8572    16.7331    -2.5768 H       
  38 H38           -0.4094    16.5038    -2.4039 H       
  39 H39            2.5283    14.5934    -2.8503 H       
  40 H40           -1.6284    12.3077    -2.4508 H       
  41 H41           -3.4645    11.4540    -1.0513 H       
  42 H42           -0.8664    11.4506     2.3421 H       
  43 H43            0.9646    12.3040     0.9357 H       
  44 H44           -1.2828    19.2512    -3.5800 H       
  45 H45           -1.6306    18.5554    -1.9790 H       
  46 H46           -0.8259    20.1380    -2.1059 H       
  47 H47            4.4104    19.6812    -1.7480 H       
  48 H48            4.8445    18.8423    -3.2568 H       
  49 H49            3.8674    20.3290    -3.3145 H       
  50 H50           -2.7050     8.4724     1.4919 H       
  51 H51            0.7743    12.5146    -2.7236 H       
  52 H52            1.8552    12.5172    -1.3094 H       
  53 H53           -0.5811     7.4329     3.2263 H       
  54 H54            2.1096     7.6679     0.8600 H       
  55 H55           -0.7042     5.4452     1.7095 H       
  56 H56           -1.4782    11.7983     3.9577 H       
  57 H57           -2.4456    12.7789     2.8203 H       
  58 H58           -2.9250    12.7050     5.5482 H       
  59 H59           -4.2057    13.0281     4.3378 H       
  60 H60           -3.4830    10.3624     5.6748 H       
  61 H61           -5.1020    11.1153     5.4940 H       
  62 H62           -5.1626    10.6773     3.1259 H       
  63 H63           -4.3502     9.2053     3.7448 H       
  64 H64           -2.2089     5.7127     3.7094 H       
  65 H65           -3.4431     6.4166     2.6373 H       
  66 H66           -3.8461     3.9953     2.9889 H       
  67 H67           -3.4555     4.3374     1.2863 H       
  68 H68           -2.2213     3.6334     2.3584 H       
  69 H69           -2.9638     6.9929     0.3678 H       
  70 H70           -1.3407     6.7858    -0.3328 H       
  71 H71           -2.3794     5.3666    -0.0586 H       
@<TRIPOS>BOND
   1    1    2 ar
   2    1   19 1
   3    1    6 ar
   4    2    3 ar
   5    2   36 1
   6    3    4 ar
   7    3   20 1
   8    4    5 ar
   9    4   37 1
  10    5    6 ar
  11    5    7 1
  12    6   38 1
  13    7    8 am
  14    7   39 1
  15    8    9 2
  16    8   23 1
  17   10   11 ar
  18   10   15 ar
  19   10   23 1
  20   11   12 ar
  21   11   40 1
  22   12   13 ar
  23   12   41 1
  24   13   14 ar
  25   13   16 1
  26   14   15 ar
  27   14   42 1
  28   15   43 1
  29   16   17 1
  30   17   18 1
  31   17   29 1
  32   17   32 1
  33   18   21 2
  34   18   22 am
  35   19   44 1
  36   19   45 1
  37   19   46 1
  38   20   47 1
  39   20   48 1
  40   20   49 1
  41   22   24 1
  42   22   50 1
  43   23   51 1
  44   23   52 1
  45   24   25 1
  46   24   28 1
  47   24   53 1
  48   25   26 2
  49   25   27 1
  50   27   54 1
  51   28   33 1
  52   28   35 1
  53   28   55 1
  54   29   30 1
  55   29   56 1
  56   29   57 1
  57   30   31 1
  58   30   58 1
  59   30   59 1
  60   31   32 1
  61   31   60 1
  62   31   61 1
  63   32   62 1
  64   32   63 1
  65   33   34 1
  66   33   64 1
  67   33   65 1
  68   34   66 1
  69   34   67 1
  70   34   68 1
  71   35   69 1
  72   35   70 1
  73   35   71 1

#	End of record

