#	Name: ASD00340001
#	Creating user name:	WinNT
#	Creation time:	15. 06. 2019 18:35

#	Modifying user name:	WinNT
#	Modification time:	15. 06. 2019 18:35

#	Program:	/corina/corina34_cracker 3.40 0067  02.08.2006

@<TRIPOS>MOLECULE
ASD00340001
  15   14    0    0    0
SMALL
NO_CHARGES


@<TRIPOS>ATOM
   1 O1            -0.0162     1.3412     0.0094 O.3     
   2 C2             0.0021    -0.0041     0.0020 C.2     
   3 O3             1.0602    -0.5960    -0.0113 O.2     
   4 C4            -1.2818    -0.7688     0.0102 C.2     
   5 O5            -2.3408    -0.1764     0.0235 O.2     
   6 N6            -1.2635    -2.1164     0.0028 N.am    
   7 C7            -2.5221    -2.8661     0.0107 C.3     
   8 C8            -2.2267    -4.3438    -0.0000 C.2     
   9 O9            -3.2350    -5.2299     0.0049 O.3     
  10 O10           -1.0822    -4.7310    -0.0130 O.2     
  11 H11            0.8394     1.7919     0.0037 H       
  12 H12           -0.4170    -2.5899    -0.0079 H       
  13 H13           -3.0887    -2.6154     0.9075 H       
  14 H14           -3.1057    -2.6058    -0.8723 H       
  15 H15           -2.9960    -6.1669    -0.0025 H       
@<TRIPOS>BOND
   1    1    2 1
   2    1   11 1
   3    2    3 2
   4    2    4 1
   5    4    5 2
   6    4    6 am
   7    6    7 1
   8    6   12 1
   9    7    8 1
  10    7   13 1
  11    7   14 1
  12    8    9 1
  13    8   10 2
  14    9   15 1

#	End of record

