#	Name: ASD03092139
#	Creating user name:	WinNT
#	Creation time:	15. 06. 2019 20:32

#	Modifying user name:	WinNT
#	Modification time:	15. 06. 2019 20:32

#	Program:	/corina/corina34_cracker 3.40 0067  02.08.2006

@<TRIPOS>MOLECULE
ASD03092139
  48   50    0    0    0
SMALL
NO_CHARGES


@<TRIPOS>ATOM
   1 N1             0.0493     1.1139    -0.2573 N.pl3   
   2 C2            -0.1092    -0.1673     0.1801 C.2     
   3 C3            -1.4480    -0.3812     0.3441 C.2     
   4 C4            -2.1159     0.8004    -0.0028 C.2     
   5 N5            -1.2215     1.6944    -0.3559 N.2     
   6 N6            -3.5018     0.9967     0.0280 N.pl3   
   7 C7            -4.0343     2.2639    -0.2288 C.ar    
   8 C8            -5.3228     2.3876    -0.7317 C.ar    
   9 C9            -5.8474     3.6422    -0.9844 C.ar    
  10 C10           -5.0867     4.7748    -0.7361 C.ar    
  11 C11           -3.2772     3.4008     0.0241 C.ar    
  12 C12            0.9711    -1.1469     0.4304 C.ar    
  13 C13            1.3231     1.7694    -0.5638 C.3     
  14 C14            0.7512    -2.2271     1.2859 C.ar    
  15 C15            1.7602    -3.1378     1.5167 C.ar    
  16 C16            2.9939    -2.9812     0.8992 C.ar    
  17 C17            3.2164    -1.9075     0.0472 C.ar    
  18 C18            2.2103    -0.9959    -0.1929 C.ar    
  19 C19           -3.8023     4.6518    -0.2349 C.ar    
  20 F20           -7.1007     3.7643    -1.4736 F       
  21 C21            1.6229     1.6224    -2.0334 C.2     
  22 O22            0.8487     1.0286    -2.7537 O.2     
  23 F23           -5.5997     5.9998    -0.9842 F       
  24 N24            2.7513     2.1509    -2.5471 N.am    
  25 C25            3.0427     2.0080    -3.9757 C.3     
  26 C26            3.6864     2.8682    -1.6769 C.3     
  27 O27            3.9861    -3.8805     1.1294 O.3     
  28 C28            5.2300    -3.6592     0.4618 C.3     
  29 H29           -1.9096    -1.2978     0.6806 H       
  30 H30           -4.0926     0.2537     0.2275 H       
  31 H31           -5.9145     1.5051    -0.9255 H       
  32 H32           -2.2765     3.3063     0.4194 H       
  33 H33            1.2574     2.8275    -0.3105 H       
  34 H34            2.1197     1.3053     0.0177 H       
  35 H35           -0.2080    -2.3494     1.7669 H       
  36 H36            1.5909    -3.9739     2.1790 H       
  37 H37            4.1773    -1.7887    -0.4311 H       
  38 H38            2.3840    -0.1613    -0.8560 H       
  39 H39           -3.2114     5.5351    -0.0426 H       
  40 H40            2.6171     2.8514    -4.5195 H       
  41 H41            4.1221     1.9862    -4.1259 H       
  42 H42            2.6057     1.0801    -4.3446 H       
  43 H43            3.3036     2.8713    -0.6564 H       
  44 H44            4.6569     2.3724    -1.6994 H       
  45 H45            3.7946     3.8946    -2.0276 H       
  46 H46            5.0705    -3.6688    -0.6164 H       
  47 H47            5.6357    -2.6926     0.7605 H       
  48 H48            5.9327    -4.4474     0.7321 H       
@<TRIPOS>BOND
   1    1    2 1
   2    1   13 1
   3    1    5 1
   4    2    3 2
   5    2   12 1
   6    3    4 1
   7    3   29 1
   8    4    5 2
   9    4    6 1
  10    6    7 1
  11    6   30 1
  12    7    8 ar
  13    7   11 ar
  14    8    9 ar
  15    8   31 1
  16    9   10 ar
  17    9   20 1
  18   10   19 ar
  19   10   23 1
  20   11   19 ar
  21   11   32 1
  22   12   14 ar
  23   12   18 ar
  24   13   21 1
  25   13   33 1
  26   13   34 1
  27   14   15 ar
  28   14   35 1
  29   15   16 ar
  30   15   36 1
  31   16   17 ar
  32   16   27 1
  33   17   18 ar
  34   17   37 1
  35   18   38 1
  36   19   39 1
  37   21   22 2
  38   21   24 am
  39   24   25 1
  40   24   26 1
  41   25   40 1
  42   25   41 1
  43   25   42 1
  44   26   43 1
  45   26   44 1
  46   26   45 1
  47   27   28 1
  48   28   46 1
  49   28   47 1
  50   28   48 1

#	End of record

