#	Name: ASD01911235
#	Creating user name:	WinNT
#	Creation time:	15. 06. 2019 19:57

#	Modifying user name:	WinNT
#	Modification time:	15. 06. 2019 19:57

#	Program:	/corina/corina34_cracker 3.40 0067  02.08.2006

@<TRIPOS>MOLECULE
ASD01911235
  41   44    0    0    0
SMALL
NO_CHARGES


@<TRIPOS>ATOM
   1 C1            -0.2321     0.9789     0.0364 C.3     
   2 C2             0.2531    -0.4667    -0.1105 C.3     
   3 N3             1.1725    -0.7715     0.9943 N.am    
   4 C4             2.3204     0.1165     1.2235 C.3     
   5 C5             1.8119     1.5555     1.3555 C.3     
   6 C6             0.9774     1.9125     0.1234 C.3     
   7 C7             0.9665    -1.8450     1.7827 C.2     
   8 O8             1.7868    -2.1459     2.6238 O.2     
   9 C9            -0.2831    -2.6714     1.6192 C.3     
  10 C10           -0.3680    -3.8590     2.5924 C.3     
  11 C11           -1.8640    -3.5332     2.7357 C.3     
  12 C12           -1.5063    -2.0891     2.3468 C.3     
  13 C13            3.0267    -0.2881     2.4918 C.2     
  14 N14            4.2306    -0.7945     2.5831 N.2     
  15 C15            4.4404    -0.9975     3.9052 C.2     
  16 N16            3.3587    -0.6046     4.5318 N.2     
  17 O17            2.5433    -0.1916     3.7345 O.3     
  18 C18            5.6595    -1.5565     4.5247 C.2     
  19 C19            5.8432    -1.7486     5.8468 C.2     
  20 C20            7.0662    -2.2853     6.1868 C.2     
  21 C21            7.8823    -2.5332     5.1570 C.2     
  22 S22            7.0932    -2.0818     3.6516 S.3     
  23 H23           -0.8386     1.2487    -0.8282 H       
  24 H24           -0.8293     1.0718     0.9435 H       
  25 H25           -0.6000    -1.1441    -0.0734 H       
  26 H26            0.7733    -0.5826    -1.0613 H       
  27 H27            3.0092     0.0481     0.3815 H       
  28 H28            1.1955     1.6430     2.2502 H       
  29 H29            2.6604     2.2358     1.4298 H       
  30 H30            1.5874     1.8010    -0.7731 H       
  31 H31            0.6348     2.9442     0.2032 H       
  32 H32           -0.4786    -2.9422     0.5816 H       
  33 H33           -0.1741    -4.8232     2.1226 H       
  34 H34            0.2007    -3.7125     3.5107 H       
  35 H35           -2.4932    -4.0395     2.0036 H       
  36 H36           -2.2365    -3.6313     3.7553 H       
  37 H37           -1.2489    -1.4587     3.1979 H       
  38 H38           -2.2315    -1.6244     1.6787 H       
  39 H39            5.0912    -1.5011     6.5814 H       
  40 H40            7.3451    -2.4903     7.2099 H       
  41 H41            8.8747    -2.9516     5.2372 H       
@<TRIPOS>BOND
   1    1    2 1
   2    1    6 1
   3    1   23 1
   4    1   24 1
   5    2    3 1
   6    2   25 1
   7    2   26 1
   8    3    4 1
   9    3    7 am
  10    4    5 1
  11    4   13 1
  12    4   27 1
  13    5    6 1
  14    5   28 1
  15    5   29 1
  16    6   30 1
  17    6   31 1
  18    7    8 2
  19    7    9 1
  20    9   10 1
  21    9   12 1
  22    9   32 1
  23   10   11 1
  24   10   33 1
  25   10   34 1
  26   11   12 1
  27   11   35 1
  28   11   36 1
  29   12   37 1
  30   12   38 1
  31   13   14 2
  32   13   17 1
  33   14   15 1
  34   15   16 2
  35   15   18 1
  36   16   17 1
  37   18   19 2
  38   18   22 1
  39   19   20 1
  40   19   39 1
  41   20   21 2
  42   20   40 1
  43   21   22 1
  44   21   41 1

#	End of record

