#	Name: ASD01811545
#	Creating user name:	WinNT
#	Creation time:	15. 06. 2019 19:26

#	Modifying user name:	WinNT
#	Modification time:	15. 06. 2019 19:26

#	Program:	/corina/corina34_cracker 3.40 0067  02.08.2006

@<TRIPOS>MOLECULE
ASD01811545
  55   57    0    0    0
SMALL
NO_CHARGES


@<TRIPOS>ATOM
   1 C1             0.6692     1.2464     0.2779 C.3     
   2 C2             0.4890    -0.2418     0.1086 C.2     
   3 C3             1.4309    -1.0676    -0.4019 C.2     
   4 C4             2.7949    -0.6184    -0.8653 C.3     
   5 C5             2.7672     0.8985    -1.0889 C.3     
   6 N6             2.0953     1.5427     0.0492 N.am    
   7 C7            -0.2856    -2.2891     0.0787 C.2     
   8 N8            -0.5960    -1.0021     0.4181 N.pl3   
   9 N9             0.9356    -2.3062    -0.4123 N.2     
  10 C10            2.7661     2.3822     0.8628 C.2     
  11 O11            3.9412     2.6153     0.6599 O.2     
  12 O12            2.1341     2.9624     1.9004 O.3     
  13 C13           -1.1716    -3.4633     0.2363 C.ar    
  14 C14           -0.7873    -4.7038    -0.2775 C.ar    
  15 C15           -1.6125    -5.8011    -0.1310 C.ar    
  16 C16           -2.8222    -5.6806     0.5236 C.ar    
  17 C17           -3.2191    -4.4456     1.0420 C.ar    
  18 C18           -2.3877    -3.3352     0.9023 C.ar    
  19 C19           -3.7164    -6.8837     0.6787 C.3     
  20 C20            0.5310    -4.8449    -0.9939 C.3     
  21 C21           -4.5142    -4.3177     1.7414 C.2     
  22 O22           -5.1837    -5.3062     1.9654 O.2     
  23 O23           -4.9526    -3.1050     2.1308 O.3     
  24 C24           -6.2335    -3.0547     2.8127 C.3     
  25 C25            2.9187     3.8551     2.7345 C.3     
  26 C26            3.4558     5.0076     1.8836 C.3     
  27 C27            2.0372     4.4145     3.8529 C.3     
  28 C28            4.0900     3.0836     3.3460 C.3     
  29 H29            0.0581     1.7794    -0.4505 H       
  30 H30            0.3862     1.5420     1.2882 H       
  31 H31            3.5373    -0.8620    -0.1053 H       
  32 H32            3.0471    -1.1207    -1.7992 H       
  33 H33            3.7875     1.2734    -1.1695 H       
  34 H34            2.2229     1.1214    -2.0066 H       
  35 H35           -1.4290    -0.6908     0.8055 H       
  36 H36           -1.3105    -6.7579    -0.5306 H       
  37 H37           -2.6876    -2.3791     1.3051 H       
  38 H38           -3.5631    -7.3257     1.6632 H       
  39 H39           -4.7576    -6.5782     0.5757 H       
  40 H40           -3.4752    -7.6173    -0.0905 H       
  41 H41            1.3277    -4.9882    -0.2640 H       
  42 H42            0.4912    -5.7053    -1.6619 H       
  43 H43            0.7276    -3.9433    -1.5741 H       
  44 H44           -7.0097    -3.4501     2.1575 H       
  45 H45           -6.1850    -3.6543     3.7217 H       
  46 H46           -6.4674    -2.0219     3.0709 H       
  47 H47            2.6214     5.5572     1.4480 H       
  48 H48            4.0449     5.6777     2.5098 H       
  49 H49            4.0839     4.6091     1.0869 H       
  50 H50            1.6545     3.5934     4.4591 H       
  51 H51            2.6262     5.0846     4.4791 H       
  52 H52            1.2027     4.9641     3.4173 H       
  53 H53            4.7181     2.6851     2.5492 H       
  54 H54            4.6791     3.7537     3.9722 H       
  55 H55            3.7074     2.2625     3.9521 H       
@<TRIPOS>BOND
   1    1    2 1
   2    1    6 1
   3    1   29 1
   4    1   30 1
   5    2    3 2
   6    2    8 1
   7    3    4 1
   8    3    9 1
   9    4    5 1
  10    4   31 1
  11    4   32 1
  12    5    6 1
  13    5   33 1
  14    5   34 1
  15    6   10 am
  16    7    8 1
  17    7    9 2
  18    7   13 1
  19    8   35 1
  20   10   11 2
  21   10   12 1
  22   12   25 1
  23   13   14 ar
  24   13   18 ar
  25   14   15 ar
  26   14   20 1
  27   15   16 ar
  28   15   36 1
  29   16   17 ar
  30   16   19 1
  31   17   18 ar
  32   17   21 1
  33   18   37 1
  34   19   38 1
  35   19   39 1
  36   19   40 1
  37   20   41 1
  38   20   42 1
  39   20   43 1
  40   21   22 2
  41   21   23 1
  42   23   24 1
  43   24   44 1
  44   24   45 1
  45   24   46 1
  46   25   26 1
  47   25   28 1
  48   25   27 1
  49   26   47 1
  50   26   48 1
  51   26   49 1
  52   27   50 1
  53   27   51 1
  54   27   52 1
  55   28   53 1
  56   28   54 1
  57   28   55 1

#	End of record

