#	Name: ASD03091940
#	Creating user name:	WinNT
#	Creation time:	15. 06. 2019 20:31

#	Modifying user name:	WinNT
#	Modification time:	15. 06. 2019 20:31

#	Program:	/corina/corina34_cracker 3.40 0067  02.08.2006

@<TRIPOS>MOLECULE
ASD03091940
  56   60    0    0    0
SMALL
NO_CHARGES


@<TRIPOS>ATOM
   1 C1            -0.0150     1.4030     0.0122 C.ar    
   2 C2            -1.2279     2.0727     0.0343 C.ar    
   3 C3            -2.4095     1.3526     0.0344 C.ar    
   4 C4            -2.3909    -0.0327     0.0125 C.ar    
   5 C5            -1.1912    -0.7141    -0.0096 C.ar    
   6 C6             0.0034     0.0001    -0.0096 C.ar    
   7 O7             1.1657     2.0697     0.0167 O.3     
   8 C8             2.2614     1.4539     0.6938 C.3     
   9 N9             2.4083     0.0563     0.2863 N.am    
  10 C10            1.3155    -0.6785    -0.0267 C.2     
  11 C11           -3.6883    -0.7995     0.0133 C.3     
  12 C12           -4.1977    -0.9263    -1.3994 C.ar    
  13 C13           -3.8286    -2.0103    -2.1822 C.ar    
  14 O14            1.4104    -1.8567    -0.3116 O.2     
  15 C15            3.7407    -0.5489     0.2168 C.3     
  16 C16            4.5953     0.1751    -0.8440 C.3     
  17 C17            4.4691    -0.3755     1.5612 C.3     
  18 C18            5.7408     0.4477     1.2704 C.3     
  19 C19            5.4066     1.2156    -0.0326 C.3     
  20 O20            4.8241    -1.6531     2.0938 O.3     
  21 C21           -3.7282     2.0815     0.0591 C.3     
  22 F22           -1.2568     3.4232     0.0560 F       
  23 C23           -4.3186    -2.0892    -3.4750 C.ar    
  24 C24           -5.1605    -1.0830    -3.9421 C.ar    
  25 N25           -5.4896    -0.0624    -3.1610 N.ar    
  26 C26           -5.0424     0.0343    -1.9260 C.ar    
  27 C27           -5.6935    -1.1528    -5.3252 C.ar    
  28 C28           -5.3672    -2.2187    -6.1664 C.ar    
  29 C29           -6.5404    -0.1562    -5.8191 C.ar    
  30 C30           -7.0147    -0.2587    -7.1105 C.ar    
  31 N31           -6.6799    -1.2793    -7.8767 N.ar    
  32 C32           -5.8865    -2.2446    -7.4484 C.ar    
  33 F33           -5.5784    -3.2699    -8.2724 F       
  34 H34           -1.1792    -1.7939    -0.0263 H       
  35 H35            3.1780     1.9943     0.4575 H       
  36 H36            2.0880     1.4972     1.7691 H       
  37 H37           -3.5229    -1.7928     0.4304 H       
  38 H38           -4.4235    -0.2690     0.6184 H       
  39 H39           -3.1735    -2.7753    -1.7924 H       
  40 H40            3.6573    -1.6076    -0.0288 H       
  41 H41            5.2645    -0.5282    -1.3396 H       
  42 H42            3.9565     0.6737    -1.5730 H       
  43 H43            3.8312     0.1588     2.2652 H       
  44 H44            5.9381     1.1454     2.0843 H       
  45 H45            6.5951    -0.2115     1.1162 H       
  46 H46            6.3180     1.4929    -0.5622 H       
  47 H47            4.8005     2.0957     0.1823 H       
  48 H48            5.2869    -1.6109     2.9418 H       
  49 H49           -4.0563     2.2737    -0.9625 H       
  50 H50           -4.4718     1.4702     0.5705 H       
  51 H51           -3.6105     3.0279     0.5870 H       
  52 H52           -4.0513    -2.9192    -4.1122 H       
  53 H53           -5.3354     0.8773    -1.3178 H       
  54 H54           -4.7190    -3.0107    -5.8215 H       
  55 H55           -6.8198     0.6821    -5.1982 H       
  56 H56           -7.6694     0.5070    -7.4997 H       
@<TRIPOS>BOND
   1    1    6 ar
   2    1    7 1
   3    1    2 ar
   4    2    3 ar
   5    2   22 1
   6    3    4 ar
   7    3   21 1
   8    4    5 ar
   9    4   11 1
  10    5    6 ar
  11    5   34 1
  12    6   10 1
  13    7    8 1
  14    8    9 1
  15    8   35 1
  16    8   36 1
  17    9   10 am
  18    9   15 1
  19   10   14 2
  20   11   12 1
  21   11   37 1
  22   11   38 1
  23   12   13 ar
  24   12   26 ar
  25   13   23 ar
  26   13   39 1
  27   15   17 1
  28   15   16 1
  29   15   40 1
  30   16   19 1
  31   16   41 1
  32   16   42 1
  33   17   18 1
  34   17   20 1
  35   17   43 1
  36   18   19 1
  37   18   44 1
  38   18   45 1
  39   19   46 1
  40   19   47 1
  41   20   48 1
  42   21   49 1
  43   21   50 1
  44   21   51 1
  45   23   24 ar
  46   23   52 1
  47   24   25 ar
  48   24   27 1
  49   25   26 ar
  50   26   53 1
  51   27   29 ar
  52   27   28 ar
  53   28   32 ar
  54   28   54 1
  55   29   30 ar
  56   29   55 1
  57   30   31 ar
  58   30   56 1
  59   31   32 ar
  60   32   33 1

#	End of record

