#	Name: ASD03091247
#	Creating user name:	WinNT
#	Creation time:	15. 06. 2019 20:30

#	Modifying user name:	WinNT
#	Modification time:	15. 06. 2019 20:30

#	Program:	/corina/corina34_cracker 3.40 0067  02.08.2006

@<TRIPOS>MOLECULE
ASD03091247
  65   70    0    0    0
SMALL
NO_CHARGES


@<TRIPOS>ATOM
   1 N1             0.6453     1.4486     0.0306 N.2     
   2 C2             0.4123     0.1669    -0.0881 C.2     
   3 N3             1.4080    -0.7706    -0.1509 N.am    
   4 C4             2.7068    -0.3949    -0.0912 C.2     
   5 C5             2.9924     1.0414     0.0418 C.ar    
   6 C6             4.2962     1.5271     0.1108 C.ar    
   7 C7             4.5074     2.8898     0.2354 C.ar    
   8 C8             3.4263     3.7697     0.2918 C.ar    
   9 C9             2.1431     3.3086     0.2253 C.ar    
  10 C10            1.9003     1.9372     0.0994 C.ar    
  11 O11            3.6047    -1.2151    -0.1452 O.2     
  12 C12            1.0655    -2.1888    -0.2830 C.3     
  13 C13            0.8143    -2.5178    -1.7560 C.3     
  14 C14            0.5899    -4.0155    -2.0231 C.3     
  15 C15           -0.5047    -3.5937    -3.0175 C.3     
  16 C16           -0.6433    -2.3013    -2.1957 C.3     
  17 C17            1.8405    -1.8755    -2.6915 C.3     
  18 O18            1.9534    -0.4831    -2.3907 O.3     
  19 C19           -0.9906    -0.2902    -0.1571 C.ar    
  20 C20           -1.4897    -1.1742     0.8048 C.ar    
  21 C21           -2.8039    -1.5970     0.7327 C.ar    
  22 C22           -3.6223    -1.1480    -0.2874 C.ar    
  23 C23           -3.1335    -0.2733    -1.2420 C.ar    
  24 C24           -1.8263     0.1623    -1.1796 C.ar    
  25 F25           -0.6901    -1.6137     1.8011 F       
  26 N26            8.6468     3.7131    -0.4858 N.3     
  27 C27            8.2066     2.7828     0.5650 C.3     
  28 C28            6.7923     2.2948     0.2926 C.3     
  29 N29            5.8117     3.3870     0.3054 N.3     
  30 C30            6.0747     4.3321    -0.7888 C.3     
  31 C31            6.9376     5.4851    -0.2985 C.3     
  32 C32            8.3853     5.0990    -0.0718 C.3     
  33 C33            8.1844     3.4290    -1.8274 C.3     
  34 C34            6.6781     3.5806    -1.9614 C.3     
  35 H35            5.1343     0.8472     0.0680 H       
  36 H36            3.6069     4.8300     0.3897 H       
  37 H37            1.3164     4.0021     0.2706 H       
  38 H38            1.8890    -2.7977     0.0900 H       
  39 H39            0.1660    -2.4008     0.2951 H       
  40 H40            1.4411    -4.5075    -2.4935 H       
  41 H41            0.2087    -4.5607    -1.1596 H       
  42 H42           -0.1353    -3.4299    -4.0298 H       
  43 H43           -1.3907    -4.2279    -2.9866 H       
  44 H44           -1.3615    -2.3779    -1.3794 H       
  45 H45           -0.7875    -1.4095    -2.8055 H       
  46 H46            2.8089    -2.3566    -2.5539 H       
  47 H47            1.5171    -1.9988    -3.7251 H       
  48 H48            2.5883    -0.0108    -2.9466 H       
  49 H49           -3.1919    -2.2796     1.4743 H       
  50 H50           -4.6481    -1.4819    -0.3397 H       
  51 H51           -3.7789     0.0727    -2.0358 H       
  52 H52           -1.4486     0.8485    -1.9232 H       
  53 H53            8.8821     1.9278     0.5937 H       
  54 H54            8.2315     3.2917     1.5286 H       
  55 H55            6.7680     1.8101    -0.6834 H       
  56 H56            6.5178     1.5649     1.0541 H       
  57 H57            5.1193     4.7405    -1.1183 H       
  58 H58            6.9011     6.2870    -1.0359 H       
  59 H59            6.5241     5.8570     0.6389 H       
  60 H60            8.6199     5.2043     0.9875 H       
  61 H61            9.0262     5.7687    -0.6452 H       
  62 H62            8.6717     4.1136    -2.5216 H       
  63 H63            8.4614     2.4075    -2.0879 H       
  64 H64            6.2260     2.5904    -2.0180 H       
  65 H65            6.4569     4.1224    -2.8810 H       
@<TRIPOS>BOND
   1    1    2 2
   2    1   10 1
   3    2    3 1
   4    2   19 1
   5    3    4 am
   6    3   12 1
   7    4    5 1
   8    4   11 2
   9    5    6 ar
  10    5   10 ar
  11    6    7 ar
  12    6   35 1
  13    7    8 ar
  14    7   29 1
  15    8    9 ar
  16    8   36 1
  17    9   10 ar
  18    9   37 1
  19   12   13 1
  20   12   38 1
  21   12   39 1
  22   13   14 1
  23   13   16 1
  24   13   17 1
  25   14   15 1
  26   14   40 1
  27   14   41 1
  28   15   16 1
  29   15   42 1
  30   15   43 1
  31   16   44 1
  32   16   45 1
  33   17   18 1
  34   17   46 1
  35   17   47 1
  36   18   48 1
  37   19   20 ar
  38   19   24 ar
  39   20   21 ar
  40   20   25 1
  41   21   22 ar
  42   21   49 1
  43   22   23 ar
  44   22   50 1
  45   23   24 ar
  46   23   51 1
  47   24   52 1
  48   26   27 1
  49   26   32 1
  50   26   33 1
  51   27   28 1
  52   27   53 1
  53   27   54 1
  54   28   29 1
  55   28   55 1
  56   28   56 1
  57   29   30 1
  58   30   31 1
  59   30   34 1
  60   30   57 1
  61   31   32 1
  62   31   58 1
  63   31   59 1
  64   32   60 1
  65   32   61 1
  66   33   34 1
  67   33   62 1
  68   33   63 1
  69   34   64 1
  70   34   65 1

#	End of record

