#	Name: ASD08170386
#	Creating user name:	WinNT
#	Creation time:	15. 06. 2019 21:17

#	Modifying user name:	WinNT
#	Modification time:	15. 06. 2019 21:17

#	Program:	/corina/corina34_cracker 3.40 0067  02.08.2006

@<TRIPOS>MOLECULE
ASD08170386
  65   68    0    0    0
SMALL
NO_CHARGES


@<TRIPOS>ATOM
   1 N1            -0.0156     1.2982     0.0092 N.2     
   2 C2             0.0021    -0.0041     0.0020 C.2     
   3 S3             1.6909    -0.5166    -0.0169 S.3     
   4 C4             2.1703     1.1819    -0.0123 C.2     
   5 N5             1.0936     1.8980     0.0018 N.2     
   6 C6             7.9357     3.2722     4.7950 C.2     
   7 S7             7.6696     4.6857     5.8175 S.3     
   8 C8             8.3495     3.7876     7.1763 C.2     
   9 N9             8.6795     2.6047     6.7426 N.2     
  10 N10            8.4610     2.3453     5.5281 N.2     
  11 C11           -3.3342    -1.0736     0.9410 C.ar    
  12 C12           -4.3806    -0.4656     1.6090 C.ar    
  13 C13           -5.1877    -1.2081     2.4506 C.ar    
  14 C14           -4.9487    -2.5585     2.6238 C.ar    
  15 C15           -3.9028    -3.1667     1.9550 C.ar    
  16 C16           -3.0984    -2.4251     1.1101 C.ar    
  17 C17            8.3456     3.5811    10.7976 C.ar    
  18 C18            8.2446     2.5350    11.6955 C.ar    
  19 C19            7.7703     4.8030    11.0924 C.ar    
  20 C20            7.0942     4.9788    12.2852 C.ar    
  21 C21            6.9928     3.9326    13.1830 C.ar    
  22 C22            7.5684     2.7108    12.8883 C.ar    
  23 N23           -1.1064    -0.8378     0.0081 N.pl3   
  24 C24           -2.4543    -0.2642     0.0235 C.3     
  25 O25           -2.9965    -0.2863    -1.2984 O.3     
  26 N26           -3.9400     0.7977    -1.5728 N.3     
  27 N27           -5.8123    -3.3533     3.5257 N.pl3   
  28 O28           -6.7336    -2.8174     4.1153 O.2     
  29 O29           -5.6017    -4.5432     3.6783 O.2     
  30 N30            8.5044     4.2570     8.4723 N.pl3   
  31 C31            9.0880     3.3913     9.5000 C.3     
  32 O32           10.4637     3.7313     9.6842 O.3     
  33 N33           11.3040     2.6078    10.0989 N.3     
  34 C34            3.5836     1.7048    -0.0230 C.3     
  35 C35            4.0756     1.8741     1.4158 C.3     
  36 S36            5.7769     2.5036     1.4029 S.3     
  37 C37            6.1764     2.6357     3.1674 C.3     
  38 C38            7.6038     3.1624     3.3291 C.3     
  39 N39            6.2697     4.1212    14.4606 N.pl3   
  40 O40            5.7639     5.1982    14.7210 O.2     
  41 O41            6.1804     3.1993    15.2517 O.2     
  42 H42           -4.5674     0.5895     1.4738 H       
  43 H43           -6.0048    -0.7329     2.9731 H       
  44 H44           -3.7158    -4.2217     2.0906 H       
  45 H45           -2.2813    -2.9002     0.5876 H       
  46 H46            8.6936     1.5802    11.4650 H       
  47 H47            7.8495     5.6204    10.3910 H       
  48 H48            6.6454     5.9337    12.5159 H       
  49 H49            7.4889     1.8933    13.5896 H       
  50 H50           -0.9890    -1.8006     0.0022 H       
  51 H51           -2.4072     0.7649     0.3798 H       
  52 H52           -4.2939     0.7389    -2.5159 H       
  53 H53           -4.6944     0.7987    -0.9028 H       
  54 H54            8.2263     5.1584     8.6981 H       
  55 H55            9.0099     2.3505     9.1856 H       
  56 H56           11.2341     1.8431     9.4444 H       
  57 H57           12.2634     2.8975    10.2155 H       
  58 H58            4.2282     0.9990    -0.5468 H       
  59 H59            3.6106     2.6683    -0.5319 H       
  60 H60            3.4310     2.5799     1.9396 H       
  61 H61            4.0486     0.9106     1.9247 H       
  62 H62            5.4792     3.3225     3.6474 H       
  63 H63            6.0968     1.6532     3.6326 H       
  64 H64            7.6834     4.1450     2.8640 H       
  65 H65            8.3010     2.4757     2.8491 H       
@<TRIPOS>BOND
   1    1    2 2
   2    1    5 1
   3    2    3 1
   4    2   23 1
   5    3    4 1
   6    4    5 2
   7    4   34 1
   8    6    7 1
   9    6   38 1
  10    6   10 2
  11    7    8 1
  12    8    9 2
  13    8   30 1
  14    9   10 1
  15   11   12 ar
  16   11   24 1
  17   11   16 ar
  18   12   13 ar
  19   12   42 1
  20   13   14 ar
  21   13   43 1
  22   14   15 ar
  23   14   27 1
  24   15   16 ar
  25   15   44 1
  26   16   45 1
  27   17   18 ar
  28   17   19 ar
  29   17   31 1
  30   18   22 ar
  31   18   46 1
  32   19   20 ar
  33   19   47 1
  34   20   21 ar
  35   20   48 1
  36   21   22 ar
  37   21   39 1
  38   22   49 1
  39   23   24 1
  40   23   50 1
  41   24   25 1
  42   24   51 1
  43   25   26 1
  44   26   52 1
  45   26   53 1
  46   27   28 2
  47   27   29 2
  48   30   31 1
  49   30   54 1
  50   31   32 1
  51   31   55 1
  52   32   33 1
  53   33   56 1
  54   33   57 1
  55   34   35 1
  56   34   58 1
  57   34   59 1
  58   35   36 1
  59   35   60 1
  60   35   61 1
  61   36   37 1
  62   37   38 1
  63   37   62 1
  64   37   63 1
  65   38   64 1
  66   38   65 1
  67   39   40 2
  68   39   41 2

#	End of record

