#	Name: ASD00431446
#	Creating user name:	WinNT
#	Creation time:	15. 06. 2019 18:35

#	Modifying user name:	WinNT
#	Modification time:	15. 06. 2019 18:35

#	Program:	/corina/corina34_cracker 3.40 0067  02.08.2006

@<TRIPOS>MOLECULE
ASD00431446
  27   28    0    0    0
SMALL
NO_CHARGES


@<TRIPOS>ATOM
   1 S1            -1.8442     1.4545     1.3485 S.3     
   2 C2            -1.3533    -0.1748     1.1867 C.2     
   3 N3            -1.2599    -0.7366     2.3538 N.2     
   4 C4            -1.5434     0.0038     3.3998 C.2     
   5 C5            -1.9002     1.2757     3.1004 C.2     
   6 C6            -2.2673     2.3184     4.0630 C.2     
   7 O7            -1.0987    -0.7922     0.0090 O.3     
   8 C8            -0.8211    -2.1222     0.0328 C.ar    
   9 C9            -1.8440    -3.0416     0.2101 C.ar    
  10 C10           -1.5576    -4.3975     0.2340 C.ar    
  11 C11           -0.2483    -4.8319     0.0804 C.ar    
  12 C12            0.7692    -3.9140    -0.0957 C.ar    
  13 C13            0.4855    -2.5619    -0.1260 C.ar    
  14 O14           -2.5578    -5.3009     0.4080 O.3     
  15 C15           -2.1897    -6.6816     0.4221 C.3     
  16 N16           -2.5911     3.5034     3.6441 N.2     
  17 O17           -2.9457     4.5107     4.5740 O.3     
  18 H18           -1.4965    -0.3692     4.4123 H       
  19 H19           -2.2683     2.1006     5.1208 H       
  20 H20           -2.8621    -2.7017     0.3298 H       
  21 H21           -0.0247    -5.8883     0.0989 H       
  22 H22            1.7874    -4.2540    -0.2142 H       
  23 H23            1.2820    -1.8465    -0.2686 H       
  24 H24           -1.7213    -6.9425    -0.5269 H       
  25 H25           -1.4872    -6.8621     1.2358 H       
  26 H26           -3.0799    -7.2935     0.5683 H       
  27 H27           -3.1709     5.3590     4.1682 H       
@<TRIPOS>BOND
   1    1    2 1
   2    1    5 1
   3    2    3 2
   4    2    7 1
   5    3    4 1
   6    4    5 2
   7    4   18 1
   8    5    6 1
   9    6   16 2
  10    6   19 1
  11    7    8 1
  12    8    9 ar
  13    8   13 ar
  14    9   10 ar
  15    9   20 1
  16   10   11 ar
  17   10   14 1
  18   11   12 ar
  19   11   21 1
  20   12   13 ar
  21   12   22 1
  22   13   23 1
  23   14   15 1
  24   15   24 1
  25   15   25 1
  26   15   26 1
  27   16   17 1
  28   17   27 1

#	End of record

