#	Name: ASD03740082
#	Creating user name:	WinNT
#	Creation time:	15. 06. 2019 20:46

#	Modifying user name:	WinNT
#	Modification time:	15. 06. 2019 20:46

#	Program:	/corina/corina34_cracker 3.40 0067  02.08.2006

@<TRIPOS>MOLECULE
ASD03740082
  49   52    0    0    0
SMALL
NO_CHARGES


@<TRIPOS>ATOM
   1 C1            -0.0168     1.3849     0.0097 C.ar    
   2 C2             0.0021    -0.0041     0.0020 C.ar    
   3 C3             1.1850    -0.6877    -0.0125 C.ar    
   4 C4             2.3894     0.0113    -0.0203 C.ar    
   5 C5             2.3718     1.4195    -0.0131 C.ar    
   6 C6             1.1486     2.0963     0.0023 C.ar    
   7 N7             3.7063    -0.3680    -0.0346 N.pl3   
   8 N8             4.5133     0.7743    -0.0364 N.2     
   9 C9             3.7704     1.8474    -0.0241 C.2     
  10 O10            4.2163     3.1315    -0.0222 O.3     
  11 C11            4.1915    -1.7503    -0.0454 C.3     
  12 C12            5.6318     3.3268    -0.0344 C.3     
  13 C13            5.9400     4.8254    -0.0302 C.3     
  14 C14            7.4556     5.0345    -0.0433 C.3     
  15 N15            7.7515     6.4734    -0.0393 N.3     
  16 C16            9.1987     6.7187     0.1892 C.3     
  17 C17            7.4851     7.0754    -1.3711 C.3     
  18 C18            8.3156     8.3767    -1.3829 C.3     
  19 C19            9.4430     8.1420    -0.3564 C.3     
  20 C20            9.5160     6.6585     1.6612 C.ar    
  21 C21           10.7968     6.3413     2.0714 C.ar    
  22 C22           11.0783     6.2886     3.4282 C.ar    
  23 C23           10.0562     6.5581     4.3251 C.ar    
  24 C24            8.7994     6.8683     3.8405 C.ar    
  25 N25            8.5692     6.9144     2.5430 N.ar    
  26 H26           -0.9621     1.9071     0.0170 H       
  27 H27           -0.9296    -0.5502     0.0080 H       
  28 H28            1.1859    -1.7677    -0.0176 H       
  29 H29            1.1256     3.1760     0.0077 H       
  30 H30            4.3021    -2.0885    -1.0757 H       
  31 H31            5.1565    -1.8005     0.4590 H       
  32 H32            3.4771    -2.3902     0.4724 H       
  33 H33            6.0702     2.8632     0.8494 H       
  34 H34            6.0537     2.8716    -0.9305 H       
  35 H35            5.5016     5.2889    -0.9140 H       
  36 H36            5.5182     5.2806     0.8659 H       
  37 H37            7.8940     4.5709     0.8405 H       
  38 H38            7.8774     4.5793    -0.9394 H       
  39 H39            9.7986     5.9916    -0.3581 H       
  40 H40            7.8169     6.4054    -2.1643 H       
  41 H41            6.4243     7.3004    -1.4813 H       
  42 H42            8.7357     8.5487    -2.3739 H       
  43 H43            7.6983     9.2226    -1.0805 H       
  44 H44            9.3790     8.8727     0.4498 H       
  45 H45           10.4164     8.1988    -0.8436 H       
  46 H46           11.5689     6.1367     1.3444 H       
  47 H47           12.0702     6.0430     3.7779 H       
  48 H48           10.2395     6.5259     5.3889 H       
  49 H49            7.9976     7.0792     4.5326 H       
@<TRIPOS>BOND
   1    1    2 ar
   2    1    6 ar
   3    1   26 1
   4    2    3 ar
   5    2   27 1
   6    3    4 ar
   7    3   28 1
   8    4    5 ar
   9    4    7 1
  10    5    6 ar
  11    5    9 1
  12    6   29 1
  13    7    8 1
  14    7   11 1
  15    8    9 2
  16    9   10 1
  17   10   12 1
  18   11   30 1
  19   11   31 1
  20   11   32 1
  21   12   13 1
  22   12   33 1
  23   12   34 1
  24   13   14 1
  25   13   35 1
  26   13   36 1
  27   14   15 1
  28   14   37 1
  29   14   38 1
  30   15   16 1
  31   15   17 1
  32   16   20 1
  33   16   19 1
  34   16   39 1
  35   17   18 1
  36   17   40 1
  37   17   41 1
  38   18   19 1
  39   18   42 1
  40   18   43 1
  41   19   44 1
  42   19   45 1
  43   20   21 ar
  44   20   25 ar
  45   21   22 ar
  46   21   46 1
  47   22   23 ar
  48   22   47 1
  49   23   24 ar
  50   23   48 1
  51   24   25 ar
  52   24   49 1

#	End of record

