#	Name: ASD01903092
#	Creating user name:	WinNT
#	Creation time:	15. 06. 2019 19:54

#	Modifying user name:	WinNT
#	Modification time:	15. 06. 2019 19:54

#	Program:	/corina/corina34_cracker 3.40 0067  02.08.2006

@<TRIPOS>MOLECULE
ASD01903092
  35   37    0    0    0
SMALL
NO_CHARGES


@<TRIPOS>ATOM
   1 C1            -0.0160     1.2945     0.0223 C.2     
   2 N2             0.0003    -0.0031     0.0053 N.2     
   3 C3            -1.1731    -0.6192     0.0294 C.2     
   4 C4            -2.2470     0.1862     0.0689 C.2     
   5 S5            -1.6842     1.8561     0.0815 S.3     
   6 C6            -1.2921    -2.0999     0.0133 C.2     
   7 N7             1.1051     2.1111     0.0028 N.pl3   
   8 C8            -2.2688    -2.8631     0.6813 C.2     
   9 N9            -2.0440    -4.1250     0.4255 N.2     
  10 N10           -0.9237    -4.2167    -0.4093 N.pl3   
  11 C11           -0.4789    -2.9662    -0.6558 C.2     
  12 C12            0.9587     3.4915    -0.0934 C.ar    
  13 N13           -0.2451     4.0127    -0.2730 N.ar    
  14 C14           -0.4275     5.3160    -0.3694 C.ar    
  15 C15            0.6393     6.1882    -0.2860 C.ar    
  16 C16            1.9187     5.6820    -0.0978 C.ar    
  17 C17            2.0779     4.3120     0.0057 C.ar    
  18 C18           -3.6857    -0.2611     0.1020 C.3     
  19 C19           -1.8182     5.8593    -0.5736 C.3     
  20 C20           -2.4446     5.2067    -1.8075 C.3     
  21 H21            1.9911     1.7199     0.0563 H       
  22 H22           -3.0652    -2.4735     1.2981 H       
  23 H23           -0.5362    -5.0366    -0.7535 H       
  24 H24            0.3708    -2.7004    -1.2672 H       
  25 H25            0.4805     7.2535    -0.3667 H       
  26 H26            2.7697     6.3435    -0.0293 H       
  27 H27            3.0587     3.8844     0.1524 H       
  28 H28           -4.0048    -0.3823     1.1371 H       
  29 H29           -4.3102     0.4876    -0.3854 H       
  30 H30           -3.7826    -1.2120    -0.4219 H       
  31 H31           -2.4271     5.6381     0.3030 H       
  32 H32           -1.7690     6.9385    -0.7188 H       
  33 H33           -1.8358     5.4280    -2.6841 H       
  34 H34           -2.4938     4.1276    -1.6623 H       
  35 H35           -3.4505     5.5997    -1.9552 H       
@<TRIPOS>BOND
   1    1    2 2
   2    1    7 1
   3    1    5 1
   4    2    3 1
   5    3    4 2
   6    3    6 1
   7    4    5 1
   8    4   18 1
   9    6    8 1
  10    6   11 2
  11    7   12 1
  12    7   21 1
  13    8    9 2
  14    8   22 1
  15    9   10 1
  16   10   11 1
  17   10   23 1
  18   11   24 1
  19   12   13 ar
  20   12   17 ar
  21   13   14 ar
  22   14   15 ar
  23   14   19 1
  24   15   16 ar
  25   15   25 1
  26   16   17 ar
  27   16   26 1
  28   17   27 1
  29   18   28 1
  30   18   29 1
  31   18   30 1
  32   19   20 1
  33   19   31 1
  34   19   32 1
  35   20   33 1
  36   20   34 1
  37   20   35 1

#	End of record

