#	Name: ASD03092131
#	Creating user name:	WinNT
#	Creation time:	15. 06. 2019 20:32

#	Modifying user name:	WinNT
#	Modification time:	15. 06. 2019 20:32

#	Program:	/corina/corina34_cracker 3.40 0067  02.08.2006

@<TRIPOS>MOLECULE
ASD03092131
  49   51    0    0    0
SMALL
NO_CHARGES


@<TRIPOS>ATOM
   1 N1             0.0832     1.0304    -0.0869 N.pl3   
   2 C2            -0.0872    -0.2715     0.2803 C.2     
   3 C3            -1.4298    -0.4888     0.4059 C.2     
   4 C4            -2.0875     0.7111     0.1073 C.2     
   5 N5            -1.1841     1.6194    -0.1808 N.2     
   6 N6            -3.4733     0.9100     0.1196 N.pl3   
   7 C7            -3.9984     2.1872    -0.1015 C.ar    
   8 C8            -5.3598     2.4190     0.0624 C.ar    
   9 C9            -5.8750     3.6844    -0.1575 C.ar    
  10 C10           -5.0364     4.7167    -0.5403 C.ar    
  11 C11           -3.1607     3.2282    -0.4798 C.ar    
  12 C12            0.9851    -1.2662     0.5015 C.ar    
  13 C13            1.3645     1.6966    -0.3332 C.3     
  14 C14            2.2542    -1.0931    -0.0625 C.ar    
  15 C15            3.2245    -2.0453     0.1695 C.ar    
  16 N16            2.9689    -3.1066     0.9108 N.ar    
  17 C17            1.7866    -3.3082     1.4608 C.ar    
  18 C18            0.7603    -2.4036     1.2854 C.ar    
  19 C19            1.5564    -4.5403     2.2974 C.3     
  20 C20           -3.6826     4.4875    -0.7036 C.ar    
  21 Cl21          -7.5740     3.9769     0.0463 Cl      
  22 C22            4.5952    -1.8716    -0.4321 C.3     
  23 C23            1.7055     1.6038    -1.7982 C.2     
  24 N24            2.8474     2.1507    -2.2602 N.am    
  25 O25            0.9524     1.0370    -2.5613 O.2     
  26 C26            3.1789     2.0605    -3.6844 C.3     
  27 C27            3.7571     2.8354    -1.3384 C.3     
  28 F28           -6.1779     1.4106     0.4352 F       
  29 H29           -1.9003    -1.4200     0.6852 H       
  30 H30           -4.0692     0.1619     0.2814 H       
  31 H31           -5.4404     5.7034    -0.7122 H       
  32 H32           -2.1023     3.0523    -0.6032 H       
  33 H33            1.2908     2.7447    -0.0430 H       
  34 H34            2.1449     1.2113     0.2530 H       
  35 H35            2.4703    -0.2271    -0.6705 H       
  36 H36           -0.2049    -2.5750     1.7386 H       
  37 H37            1.8034    -4.3250     3.3370 H       
  38 H38            0.5100    -4.8373     2.2265 H       
  39 H39            2.1893    -5.3499     1.9338 H       
  40 H40           -3.0314     5.2956    -1.0024 H       
  41 H41            5.2284    -1.3171     0.2605 H       
  42 H42            5.0352    -2.8505    -0.6225 H       
  43 H43            4.5135    -1.3215    -1.3696 H       
  44 H44            2.3985     2.5457    -4.2705 H       
  45 H45            4.1322     2.5561    -3.8676 H       
  46 H46            3.2526     1.0124    -3.9746 H       
  47 H47            4.4759     2.1199    -0.9389 H       
  48 H48            4.2878     3.6246    -1.8708 H       
  49 H49            3.1846     3.2709    -0.5195 H       
@<TRIPOS>BOND
   1    1    2 1
   2    1   13 1
   3    1    5 1
   4    2    3 2
   5    2   12 1
   6    3    4 1
   7    3   29 1
   8    4    5 2
   9    4    6 1
  10    6    7 1
  11    6   30 1
  12    7    8 ar
  13    7   11 ar
  14    8    9 ar
  15    8   28 1
  16    9   10 ar
  17    9   21 1
  18   10   20 ar
  19   10   31 1
  20   11   20 ar
  21   11   32 1
  22   12   14 ar
  23   12   18 ar
  24   13   23 1
  25   13   33 1
  26   13   34 1
  27   14   15 ar
  28   14   35 1
  29   15   16 ar
  30   15   22 1
  31   16   17 ar
  32   17   18 ar
  33   17   19 1
  34   18   36 1
  35   19   37 1
  36   19   38 1
  37   19   39 1
  38   20   40 1
  39   22   41 1
  40   22   42 1
  41   22   43 1
  42   23   24 am
  43   23   25 2
  44   24   26 1
  45   24   27 1
  46   26   44 1
  47   26   45 1
  48   26   46 1
  49   27   47 1
  50   27   48 1
  51   27   49 1

#	End of record

