#	Name: ASD01880960
#	Creating user name:	WinNT
#	Creation time:	15. 06. 2019 19:41

#	Modifying user name:	WinNT
#	Modification time:	15. 06. 2019 19:41

#	Program:	/corina/corina34_cracker 3.40 0067  02.08.2006

@<TRIPOS>MOLECULE
ASD01880960
  45   48    0    0    0
SMALL
NO_CHARGES


@<TRIPOS>ATOM
   1 N1             0.0047     1.3280    -0.1708 N.ar    
   2 C2             0.0077     0.0102    -0.1809 C.ar    
   3 N3             1.1178    -0.6849    -0.0192 N.ar    
   4 C4             2.2819    -0.0801     0.1606 C.ar    
   5 C5             2.3288     1.3026     0.1783 C.ar    
   6 C6             1.1358     2.0086     0.0046 C.ar    
   7 C7             3.6337     2.0288     0.3807 C.3     
   8 O8             4.6664     1.0826     0.6642 O.3     
   9 C9             5.9132     1.5757     0.8739 C.ar    
  10 C10            6.9653     0.7088     1.1548 C.ar    
  11 C11            8.2263     1.2077     1.3664 C.ar    
  12 C12            8.4629     2.5851     1.3016 C.ar    
  13 C13            7.4024     3.4525     1.0189 C.ar    
  14 C14            6.1389     2.9444     0.8021 C.ar    
  15 C15            9.5524     0.5626     1.6836 C.3     
  16 N16           10.5249     1.6564     1.7888 N.am    
  17 C17            9.8917     2.8211     1.5677 C.2     
  18 O18           10.4234     3.9145     1.5845 O.2     
  19 Cl19          -1.4907    -0.8351    -0.4128 Cl      
  20 Cl20           7.6776     5.1645     0.9351 Cl      
  21 C21            1.1293     3.4916     0.0145 C.ar    
  22 C22            2.0941     4.2001    -0.6994 C.ar    
  23 C23            2.0829     5.5801    -0.6870 C.ar    
  24 C24            1.1165     6.2601     0.0322 C.ar    
  25 C25            0.1567     5.5621     0.7430 C.ar    
  26 C26            0.1548     4.1820     0.7331 C.ar    
  27 C27           12.7292     1.3364     0.7787 C.3     
  28 C28           11.9514     1.5039     2.0856 C.3     
  29 H29            3.1839    -0.6592     0.2923 H       
  30 H30            3.8860     2.5817    -0.5242 H       
  31 H31            3.5376     2.7228     1.2156 H       
  32 H32            6.7895    -0.3555     1.2067 H       
  33 H33            5.3201     3.6139     0.5835 H       
  34 H34            9.4905     0.0240     2.6292 H       
  35 H35            9.8393    -0.1181     0.8821 H       
  36 H36            2.8493     3.6703    -1.2610 H       
  37 H37            2.8303     6.1302    -1.2395 H       
  38 H38            1.1115     7.3400     0.0391 H       
  39 H39           -0.5950     6.0981     1.3033 H       
  40 H40           -0.5953     3.6381     1.2880 H       
  41 H41           13.7905     1.2230     0.9995 H       
  42 H42           12.3707     0.4512     0.2534 H       
  43 H43           12.5804     2.2158     0.1521 H       
  44 H44           12.3099     2.3891     2.6109 H       
  45 H45           12.1002     0.6245     2.7122 H       
@<TRIPOS>BOND
   1    1    2 ar
   2    1    6 ar
   3    2    3 ar
   4    2   19 1
   5    3    4 ar
   6    4    5 ar
   7    4   29 1
   8    5    6 ar
   9    5    7 1
  10    6   21 1
  11    7    8 1
  12    7   30 1
  13    7   31 1
  14    8    9 1
  15    9   10 ar
  16    9   14 ar
  17   10   11 ar
  18   10   32 1
  19   11   12 ar
  20   11   15 1
  21   12   13 ar
  22   12   17 1
  23   13   14 ar
  24   13   20 1
  25   14   33 1
  26   15   16 1
  27   15   34 1
  28   15   35 1
  29   16   17 am
  30   16   28 1
  31   17   18 2
  32   21   22 ar
  33   21   26 ar
  34   22   23 ar
  35   22   36 1
  36   23   24 ar
  37   23   37 1
  38   24   25 ar
  39   24   38 1
  40   25   26 ar
  41   25   39 1
  42   26   40 1
  43   27   28 1
  44   27   41 1
  45   27   42 1
  46   27   43 1
  47   28   44 1
  48   28   45 1

#	End of record

