#	Name: ASD04880109
#	Creating user name:	WinNT
#	Creation time:	15. 06. 2019 20:52

#	Modifying user name:	WinNT
#	Modification time:	15. 06. 2019 20:52

#	Program:	/corina/corina34_cracker 3.40 0067  02.08.2006

@<TRIPOS>MOLECULE
ASD04880109
  41   43    0    0    0
SMALL
NO_CHARGES


@<TRIPOS>ATOM
   1 C1            -0.0144     1.2118     0.0087 C.2     
   2 O2             0.0439    -0.0026     0.0314 O.2     
   3 N3             1.1183     1.9399    -0.0482 N.am    
   4 N4             1.1856     3.3243    -0.1908 N.2     
   5 C5             2.3857     3.7928    -0.2197 C.2     
   6 C6             3.3746     2.6569    -0.0854 C.3     
   7 C7             2.4859     1.4032     0.0365 C.3     
   8 C8             2.7398     5.2166    -0.3624 C.ar    
   9 C9             1.7343     6.1803    -0.4794 C.ar    
  10 C10            2.0720     7.5137    -0.6125 C.ar    
  11 C11            3.4123     7.8949    -0.6303 C.ar    
  12 C12            4.4104     6.9388    -0.5148 C.ar    
  13 C13            4.0811     5.6066    -0.3754 C.ar    
  14 O14            3.7423     9.2070    -0.7618 O.3     
  15 C15            5.1348     9.5278    -0.7725 C.3     
  16 O16            1.0961     8.4540    -0.7265 O.3     
  17 C17           -0.2560     7.9923    -0.7009 C.3     
  18 C18           -1.3276     1.8892     0.0373 C.ar    
  19 C19           -2.5037     1.1426    -0.0542 C.ar    
  20 C20           -3.7268     1.7816    -0.0264 C.ar    
  21 C21           -3.7883     3.1599     0.0920 C.ar    
  22 C22           -2.6263     3.9048     0.1830 C.ar    
  23 C23           -1.3975     3.2777     0.1618 C.ar    
  24 Br24          -5.3215     0.7730    -0.1508 Br      
  25 H25            4.0091     2.5958    -0.9696 H       
  26 H26            3.9797     2.7809     0.8127 H       
  27 H27            2.6455     0.9094     0.9950 H       
  28 H28            2.6801     0.7162    -0.7871 H       
  29 H29            0.6960     5.8836    -0.4661 H       
  30 H30            5.4478     7.2386    -0.5298 H       
  31 H31            4.8603     4.8647    -0.2811 H       
  32 H32            5.5895     9.2038     0.1636 H       
  33 H33            5.6184     9.0192    -1.6065 H       
  34 H34            5.2586    10.6051    -0.8829 H       
  35 H35           -0.9319     8.8416    -0.8004 H       
  36 H36           -0.4190     7.2994    -1.5264 H       
  37 H37           -0.4484     7.4836     0.2438 H       
  38 H38           -2.4566     0.0676    -0.1469 H       
  39 H39           -4.7477     3.6554     0.1129 H       
  40 H40           -2.6812     4.9795     0.2752 H       
  41 H41           -0.4913     3.8605     0.2371 H       
@<TRIPOS>BOND
   1    1    2 2
   2    1    3 am
   3    1   18 1
   4    3    4 1
   5    3    7 1
   6    4    5 2
   7    5    6 1
   8    5    8 1
   9    6    7 1
  10    6   25 1
  11    6   26 1
  12    7   27 1
  13    7   28 1
  14    8    9 ar
  15    8   13 ar
  16    9   10 ar
  17    9   29 1
  18   10   11 ar
  19   10   16 1
  20   11   12 ar
  21   11   14 1
  22   12   13 ar
  23   12   30 1
  24   13   31 1
  25   14   15 1
  26   15   32 1
  27   15   33 1
  28   15   34 1
  29   16   17 1
  30   17   35 1
  31   17   36 1
  32   17   37 1
  33   18   19 ar
  34   18   23 ar
  35   19   20 ar
  36   19   38 1
  37   20   21 ar
  38   20   24 1
  39   21   22 ar
  40   21   39 1
  41   22   23 ar
  42   22   40 1
  43   23   41 1

#	End of record

