#	Name: ASD02030753
#	Creating user name:	WinNT
#	Creation time:	15. 06. 2019 20:16

#	Modifying user name:	WinNT
#	Modification time:	15. 06. 2019 20:16

#	Program:	/corina/corina34_cracker 3.40 0067  02.08.2006

@<TRIPOS>MOLECULE
ASD02030753
  63   66    0    0    0
SMALL
NO_CHARGES


@<TRIPOS>ATOM
   1 C1             0.0271     1.1817    -0.0038 C.ar    
   2 C2            -2.2614     1.5757     0.5939 C.ar    
   3 C3            -0.9885     2.0569     0.3581 C.ar    
   4 C4            -0.2409    -0.1752    -0.1274 C.ar    
   5 C5            -1.5147    -0.6509     0.1149 C.ar    
   6 C6            -2.5227     0.2225     0.4802 C.ar    
   7 C7            -3.9126    -0.2993     0.7387 C.3     
   8 C8            -3.8743    -1.3025     1.8932 C.3     
   9 N9            -5.2393    -1.7196     2.2233 N.am    
  10 S10           -5.4909    -3.0512     3.1750 S.o2    
  11 C11           -4.8072    -4.4299     2.2146 C.3     
  12 C12           -4.9931    -5.7346     2.9917 C.3     
  13 C13           -5.5357    -4.5273     0.8726 C.3     
  14 C14           -4.4402    -0.9905    -0.5202 C.3     
  15 O15           -4.7016    -2.8095     4.3317 O.2     
  16 O16           -6.9053    -3.1574     3.2623 O.2     
  17 N17            1.3177     1.6673    -0.2492 N.pl3   
  18 C18            3.0186     2.8900    -1.0431 C.ar    
  19 C19            3.5294     1.8462    -0.1492 C.2     
  20 C20            2.4679     1.1518     0.2887 C.2     
  21 C21            0.8423     3.5849    -1.8487 C.ar    
  22 C22            1.4316     4.5738    -2.5792 C.ar    
  23 C23            2.8231     4.7442    -2.5603 C.ar    
  24 C24            3.6178     3.9030    -1.7872 C.ar    
  25 C25            1.6192     2.7290    -1.0709 C.ar    
  26 C26            3.4455     5.8199    -3.3577 C.2     
  27 N27            4.7132     5.6869    -3.7955 N.am    
  28 O28            2.8144     6.8256    -3.6192 O.2     
  29 C29            6.8306     6.0572    -4.9223 C.3     
  30 C30            6.6370     4.5431    -4.6517 C.3     
  31 C31            5.6149     4.5619    -3.4878 C.3     
  32 C32            5.4237     6.6366    -4.6643 C.3     
  33 H33           -3.0517     2.2558     0.8754 H       
  34 H34           -0.7831     3.1127     0.4554 H       
  35 H35            0.5458    -0.8578    -0.4130 H       
  36 H36           -1.7239    -1.7061     0.0186 H       
  37 H37           -4.5694     0.5304     1.0000 H       
  38 H38           -3.2894    -2.1738     1.5982 H       
  39 H39           -3.4162    -0.8357     2.7652 H       
  40 H40           -5.9957    -1.2158     1.8843 H       
  41 H41           -3.7449    -4.2593     2.0398 H       
  42 H42           -6.0554    -5.9052     3.1665 H       
  43 H43           -4.5823    -6.5630     2.4146 H       
  44 H44           -4.4741    -5.6652     3.9477 H       
  45 H45           -5.3321    -3.6335     0.2830 H       
  46 H46           -5.1855    -5.4067     0.3322 H       
  47 H47           -6.6084    -4.6111     1.0468 H       
  48 H48           -5.4456    -1.3679    -0.3333 H       
  49 H49           -4.4676    -0.2757    -1.3427 H       
  50 H50           -3.7834    -1.8202    -0.7815 H       
  51 H51            4.5633     1.6699     0.1082 H       
  52 H52            2.5133     0.3113     0.9654 H       
  53 H53           -0.2308     3.4648    -1.8727 H       
  54 H54            0.8205     5.2323    -3.1786 H       
  55 H55            4.6901     4.0308    -1.7695 H       
  56 H56            7.5568     6.4829    -4.2299 H       
  57 H57            7.1344     6.2286    -5.9550 H       
  58 H58            6.2244     4.0396    -5.5260 H       
  59 H59            7.5730     4.0789    -4.3409 H       
  60 H60            6.1236     4.7320    -2.5389 H       
  61 H61            5.0571     3.6259    -3.4577 H       
  62 H62            4.8895     6.7470    -5.6079 H       
  63 H63            5.5063     7.6032    -4.1674 H       
@<TRIPOS>BOND
   1    1    4 ar
   2    1   17 1
   3    1    3 ar
   4    2    3 ar
   5    2    6 ar
   6    2   33 1
   7    3   34 1
   8    4    5 ar
   9    4   35 1
  10    5    6 ar
  11    5   36 1
  12    6    7 1
  13    7    8 1
  14    7   14 1
  15    7   37 1
  16    8    9 1
  17    8   38 1
  18    8   39 1
  19    9   10 am
  20    9   40 1
  21   10   11 1
  22   10   15 2
  23   10   16 2
  24   11   12 1
  25   11   13 1
  26   11   41 1
  27   12   42 1
  28   12   43 1
  29   12   44 1
  30   13   45 1
  31   13   46 1
  32   13   47 1
  33   14   48 1
  34   14   49 1
  35   14   50 1
  36   17   25 1
  37   17   20 1
  38   18   19 1
  39   18   25 ar
  40   18   24 ar
  41   19   20 2
  42   19   51 1
  43   20   52 1
  44   21   22 ar
  45   21   25 ar
  46   21   53 1
  47   22   23 ar
  48   22   54 1
  49   23   24 ar
  50   23   26 1
  51   24   55 1
  52   26   27 am
  53   26   28 2
  54   27   32 1
  55   27   31 1
  56   29   30 1
  57   29   32 1
  58   29   56 1
  59   29   57 1
  60   30   31 1
  61   30   58 1
  62   30   59 1
  63   31   60 1
  64   31   61 1
  65   32   62 1
  66   32   63 1

#	End of record

