#	Name: ASD01911503
#	Creating user name:	WinNT
#	Creation time:	15. 06. 2019 19:57

#	Modifying user name:	WinNT
#	Modification time:	15. 06. 2019 19:57

#	Program:	/corina/corina34_cracker 3.40 0067  02.08.2006

@<TRIPOS>MOLECULE
ASD01911503
  43   45    0    0    0
SMALL
NO_CHARGES


@<TRIPOS>ATOM
   1 C1             0.0640     1.5879    -0.0391 C.2     
   2 C2             0.0326     0.0815    -0.0067 C.3     
   3 O3             1.1226     2.1696    -0.0683 O.2     
   4 O4            -1.0841     2.2832    -0.0411 O.3     
   5 N5             1.4032    -0.4358    -0.0176 N.pl3   
   6 N6             2.2201    -0.6278     1.1037 N.2     
   7 C7             3.3777    -1.1065     0.6982 C.2     
   8 C8             3.3362    -1.2358    -0.7004 C.2     
   9 C9             2.1064    -0.8209    -1.1207 C.2     
  10 C10            1.6242    -0.7915    -2.5193 C.ar    
  11 C11            0.5828     0.0633    -2.8822 C.ar    
  12 C12            0.1361     0.0880    -4.1864 C.ar    
  13 C13            0.7210    -0.7368    -5.1380 C.ar    
  14 C14            1.7572    -1.5891    -4.7805 C.ar    
  15 C15            2.2136    -1.6143    -3.4797 C.ar    
  16 O16            0.2779    -0.7101    -6.4222 O.3     
  17 C17            0.9241    -1.5844    -7.3497 C.3     
  18 C18            4.5293    -1.4502     1.5691 C.ar    
  19 C19            4.4388    -1.2732     2.9483 C.ar    
  20 C20            5.5104    -1.5939     3.7552 C.ar    
  21 C21            6.6785    -2.0921     3.1946 C.ar    
  22 C22            6.7717    -2.2691     1.8209 C.ar    
  23 C23            5.7011    -1.9559     1.0097 C.ar    
  24 O24            7.7328    -2.4068     3.9920 O.3     
  25 C25            8.9036    -2.9147     3.3490 C.3     
  26 H26           -0.4744    -0.2519     0.8987 H       
  27 H27           -0.5028    -0.2896    -0.8806 H       
  28 H28           -1.0134     3.2474    -0.0624 H       
  29 H29            4.1341    -1.6014    -1.3298 H       
  30 H30            0.1269     0.7046    -2.1424 H       
  31 H31           -0.6699     0.7493    -4.4680 H       
  32 H32            2.2095    -2.2294    -5.5233 H       
  33 H33            3.0231    -2.2737    -3.2035 H       
  34 H34            1.9850    -1.3399    -7.4008 H       
  35 H35            0.8045    -2.6164    -7.0200 H       
  36 H36            0.4755    -1.4637    -8.3358 H       
  37 H37            3.5305    -0.8849     3.3850 H       
  38 H38            5.4408    -1.4569     4.8243 H       
  39 H39            7.6818    -2.6566     1.3874 H       
  40 H40            5.7726    -2.0980    -0.0585 H       
  41 H41            8.6560    -3.8322     2.8153 H       
  42 H42            9.2807    -2.1743     2.6435 H       
  43 H43            9.6672    -3.1248     4.0979 H       
@<TRIPOS>BOND
   1    1    2 1
   2    1    3 2
   3    1    4 1
   4    2    5 1
   5    2   26 1
   6    2   27 1
   7    4   28 1
   8    5    6 1
   9    5    9 1
  10    6    7 2
  11    7    8 1
  12    7   18 1
  13    8    9 2
  14    8   29 1
  15    9   10 1
  16   10   11 ar
  17   10   15 ar
  18   11   12 ar
  19   11   30 1
  20   12   13 ar
  21   12   31 1
  22   13   14 ar
  23   13   16 1
  24   14   15 ar
  25   14   32 1
  26   15   33 1
  27   16   17 1
  28   17   34 1
  29   17   35 1
  30   17   36 1
  31   18   19 ar
  32   18   23 ar
  33   19   20 ar
  34   19   37 1
  35   20   21 ar
  36   20   38 1
  37   21   22 ar
  38   21   24 1
  39   22   23 ar
  40   22   39 1
  41   23   40 1
  42   24   25 1
  43   25   41 1
  44   25   42 1
  45   25   43 1

#	End of record

