#	Name: ASD01820193
#	Creating user name:	WinNT
#	Creation time:	15. 06. 2019 19:36

#	Modifying user name:	WinNT
#	Modification time:	15. 06. 2019 19:36

#	Program:	/corina/corina34_cracker 3.40 0067  02.08.2006

@<TRIPOS>MOLECULE
ASD01820193
  99  103    0    0    0
SMALL
NO_CHARGES


@<TRIPOS>ATOM
   1 N1            -2.7346     4.0313    -2.2462 N.am    
   2 C2            -3.3638     2.9454    -2.7343 C.2     
   3 C3            -1.2733     4.0130    -2.1433 C.3     
   4 C4            -0.6640     4.5477    -3.4409 C.3     
   5 C5             0.8621     4.5286    -3.3335 C.3     
   6 N6             1.4471     5.0420    -4.5793 N.4     
   7 C7             2.9124     5.0237    -4.4762 C.3     
   8 C8             3.5217     5.5584    -5.7738 C.3     
   9 C9             5.0478     5.5393    -5.6663 C.3     
  10 C10            5.6572     6.0740    -6.9639 C.3     
  11 C11            7.1833     6.0549    -6.8565 C.3     
  12 C12            7.7926     6.5897    -8.1540 C.3     
  13 N13            9.2579     6.5713    -8.0509 N.4     
  14 C14            9.8429     7.0847    -9.2967 C.3     
  15 C15           11.2456     7.6273    -9.0158 C.3     
  16 N16           13.2693     8.5095   -10.0682 N.am    
  17 O17           -2.7164     1.9752    -3.0787 O.2     
  18 C18           11.9262     7.9900   -10.3372 C.3     
  19 C19           14.3787     7.7519    -9.9990 C.2     
  20 C20           15.5322     8.6306    -9.7122 C.ar    
  21 C21           15.0090     9.9367    -9.6225 C.ar    
  22 C22           13.5563     9.8078    -9.8636 C.2     
  23 C23           16.8897     8.4187    -9.5357 C.ar    
  24 C24           17.7247     9.4938    -9.2719 C.ar    
  25 C25           17.2118    10.7739    -9.1836 C.ar    
  26 C26           15.8553    11.0012    -9.3587 C.ar    
  27 O27           14.4249     6.5473   -10.1469 O.2     
  28 O28           12.7549    10.7203    -9.8689 O.2     
  29 C29            9.6802     7.4172    -6.9266 C.3     
  30 C30            9.7157     5.1937    -7.8262 C.3     
  31 C31            1.0248     4.1961    -5.7036 C.3     
  32 C32            0.9893     6.4196    -4.8040 C.3     
  33 C33           -4.8292     2.9260    -2.8528 C.ar    
  34 C34           -5.5579     4.0666    -2.4450 C.ar    
  35 C35           -4.8654     5.1893    -1.9371 C.ar    
  36 C36           -3.3984     5.1354    -1.8543 C.2     
  37 O37           -2.7817     6.0896    -1.4206 O.2     
  38 C38           -5.5177     1.8292    -3.3492 C.ar    
  39 C39           -6.9045     1.8588    -3.4419 C.ar    
  40 C40           -7.6243     2.9517    -3.0529 C.ar    
  41 C41           -6.9645     4.0843    -2.5445 C.ar    
  42 C42           -7.6607     5.2336    -2.1307 C.ar    
  43 C43           -6.9754     6.3093    -1.6437 C.ar    
  44 C44           -5.5892     6.3036    -1.5397 C.ar    
  45 C45           11.1431     8.8747    -8.1357 C.3     
  46 C46           12.0701     6.5599    -8.2935 C.3     
  47 C47           18.1333    11.9309    -8.8953 C.3     
  48 H48           -0.9600     4.6407    -1.3091 H       
  49 H49           -0.9336     2.9908    -1.9766 H       
  50 H50           -0.9774     3.9200    -4.2751 H       
  51 H51           -1.0038     5.5699    -3.6076 H       
  52 H52            1.1755     5.1563    -2.4993 H       
  53 H53            1.2018     3.5064    -3.1668 H       
  54 H54            3.2258     5.6514    -3.6420 H       
  55 H55            3.2521     4.0015    -4.3094 H       
  56 H56            3.2083     4.9307    -6.6080 H       
  57 H57            3.1820     6.5806    -5.9405 H       
  58 H58            5.3612     6.1670    -4.8321 H       
  59 H59            5.3876     4.5171    -5.4996 H       
  60 H60            5.3438     5.4464    -7.7981 H       
  61 H61            5.3174     7.0962    -7.1306 H       
  62 H62            7.4966     6.6826    -6.0222 H       
  63 H63            7.5230     5.0328    -6.6897 H       
  64 H64            7.4792     5.9620    -8.9883 H       
  65 H65            7.4528     7.6118    -8.3208 H       
  66 H66            9.9048     6.2789   -10.0281 H       
  67 H67            9.2158     7.8849    -9.6899 H       
  68 H68           11.9992     7.1014   -10.9642 H       
  69 H69           11.3388     8.7504   -10.8518 H       
  70 H70           17.2960     7.4203    -9.6029 H       
  71 H71           18.7832     9.3295    -9.1342 H       
  72 H72           15.4599    12.0038    -9.2884 H       
  73 H73            9.1365     7.1255    -6.0281 H       
  74 H74           10.7502     7.2928    -6.7602 H       
  75 H75            9.4673     8.4611    -7.1573 H       
  76 H76            9.5074     4.5927    -8.7113 H       
  77 H77           10.7882     5.1945    -7.6317 H       
  78 H78            9.1913     4.7718    -6.9688 H       
  79 H79           -0.0624     4.2097    -5.7801 H       
  80 H80            1.4589     4.5770    -6.6280 H       
  81 H81            1.3645     3.1739    -5.5369 H       
  82 H82            1.3026     7.0473    -3.9698 H       
  83 H83            1.4234     6.8006    -5.7284 H       
  84 H84           -0.0980     6.4332    -4.8806 H       
  85 H85           -4.9753     0.9503    -3.6649 H       
  86 H86           -7.4250     0.9964    -3.8315 H       
  87 H87           -8.7010     2.9464    -3.1363 H       
  88 H88           -8.7381     5.2656    -2.1984 H       
  89 H89           -7.5237     7.1854    -1.3303 H       
  90 H90           -5.0746     7.1695    -1.1501 H       
  91 H91           11.1032     8.5776    -7.0877 H       
  92 H92           12.0144     9.5084    -8.3008 H       
  93 H93           10.2387     9.4266    -8.3916 H       
  94 H94           11.8362     5.5788    -8.7068 H       
  95 H95           13.1316     6.7675    -8.4288 H       
  96 H96           11.8300     6.5730    -7.2304 H       
  97 H97           18.5072    12.3402    -9.8337 H       
  98 H98           17.5878    12.7037    -8.3536 H       
  99 H99           18.9714    11.5858    -8.2899 H       
@<TRIPOS>BOND
   1    1    2 am
   2    1    3 1
   3    1   36 am
   4    2   17 2
   5    2   33 1
   6    3    4 1
   7    3   48 1
   8    3   49 1
   9    4    5 1
  10    4   50 1
  11    4   51 1
  12    5    6 1
  13    5   52 1
  14    5   53 1
  15    6    7 1
  16    6   31 1
  17    6   32 1
  18    7    8 1
  19    7   54 1
  20    7   55 1
  21    8    9 1
  22    8   56 1
  23    8   57 1
  24    9   10 1
  25    9   58 1
  26    9   59 1
  27   10   11 1
  28   10   60 1
  29   10   61 1
  30   11   12 1
  31   11   62 1
  32   11   63 1
  33   12   13 1
  34   12   64 1
  35   12   65 1
  36   13   14 1
  37   13   29 1
  38   13   30 1
  39   14   15 1
  40   14   66 1
  41   14   67 1
  42   15   18 1
  43   15   45 1
  44   15   46 1
  45   16   19 am
  46   16   18 1
  47   16   22 am
  48   18   68 1
  49   18   69 1
  50   19   20 1
  51   19   27 2
  52   20   21 ar
  53   20   23 ar
  54   21   22 1
  55   21   26 ar
  56   22   28 2
  57   23   24 ar
  58   23   70 1
  59   24   25 ar
  60   24   71 1
  61   25   26 ar
  62   25   47 1
  63   26   72 1
  64   29   73 1
  65   29   74 1
  66   29   75 1
  67   30   76 1
  68   30   77 1
  69   30   78 1
  70   31   79 1
  71   31   80 1
  72   31   81 1
  73   32   82 1
  74   32   83 1
  75   32   84 1
  76   33   34 ar
  77   33   38 ar
  78   34   35 ar
  79   34   41 ar
  80   35   36 1
  81   35   44 ar
  82   36   37 2
  83   38   39 ar
  84   38   85 1
  85   39   40 ar
  86   39   86 1
  87   40   41 ar
  88   40   87 1
  89   41   42 ar
  90   42   43 ar
  91   42   88 1
  92   43   44 ar
  93   43   89 1
  94   44   90 1
  95   45   91 1
  96   45   92 1
  97   45   93 1
  98   46   94 1
  99   46   95 1
 100   46   96 1
 101   47   97 1
 102   47   98 1
 103   47   99 1

#	End of record

