#	Name: ASD01820043
#	Creating user name:	WinNT
#	Creation time:	15. 06. 2019 19:36

#	Modifying user name:	WinNT
#	Modification time:	15. 06. 2019 19:36

#	Program:	/corina/corina34_cracker 3.40 0067  02.08.2006

@<TRIPOS>MOLECULE
ASD01820043
  90   93    0    0    0
SMALL
NO_CHARGES


@<TRIPOS>ATOM
   1 N1            -2.3783    -5.2071     7.7312 N.am    
   2 C2            -2.3348    -6.4723     6.9941 C.3     
   3 C3            -2.1536    -7.6299     7.9780 C.3     
   4 C4            -2.2329    -8.9582     7.2229 C.3     
   5 N5            -2.2035   -10.0697     8.1829 N.4     
   6 C6            -2.7172   -11.2863     7.5394 C.3     
   7 C7            -2.6865   -12.4439     8.5393 C.3     
   8 C8            -3.2215   -13.7110     7.8691 C.3     
   9 C9            -3.1909   -14.8687     8.8690 C.3     
  10 C10           -3.7258   -16.1358     8.1988 C.3     
  11 C11           -3.6952   -17.2934     9.1987 C.3     
  12 C12           -0.8218   -10.2967     8.6271 C.3     
  13 C13           -3.0422    -9.7376     9.3424 C.3     
  14 N14           -4.2088   -18.5100     8.5552 N.4     
  15 C15           -4.1794   -19.6215     9.5152 C.3     
  16 C16           -4.2601   -20.9498     8.7603 C.3     
  17 C17           -4.0789   -22.1074     9.7441 C.3     
  18 N18           -4.0367   -23.3727     9.0069 N.am    
  19 C19           -5.5905   -18.2830     8.1111 C.3     
  20 C20           -3.3701   -18.8421     7.3958 C.3     
  21 C21           -2.9135   -23.9383     8.5291 C.2     
  22 C22           -3.2741   -25.1997     7.8482 C.ar    
  23 C23           -4.6736   -25.3165     7.9686 C.ar    
  24 C24           -5.1154   -24.1249     8.7235 C.2     
  25 C25           -2.5552   -26.1811     7.1848 C.ar    
  26 C26           -3.2185   -27.2715     6.6439 C.ar    
  27 C27           -4.5909   -27.3860     6.7619 C.ar    
  28 C28           -5.3231   -26.4121     7.4228 C.ar    
  29 O29           -6.2614   -23.8646     9.0298 O.2     
  30 O30           -1.7910   -23.4878     8.6389 O.2     
  31 C31           -1.2996    -4.4571     8.0204 C.2     
  32 C32           -1.7434    -3.2629     8.7700 C.ar    
  33 C33           -3.1429    -3.3806     8.8894 C.ar    
  34 C34           -3.5029    -4.6394     8.2032 C.2     
  35 C35           -1.0950    -2.1670     9.3163 C.ar    
  36 C36           -1.8282    -1.1935     9.9767 C.ar    
  37 C37           -3.2006    -1.3089    10.0938 C.ar    
  38 C38           -3.8628    -2.3997     9.5524 C.ar    
  39 O39           -0.1530    -4.7175     7.7163 O.2     
  40 O40           -4.6252    -5.0897     8.0912 O.2     
  41 C41           -0.7888    -7.5112     8.6592 C.3     
  42 C42           -5.6255   -21.0676     8.0800 C.3     
  43 H43           -3.2669    -6.6050     6.4447 H       
  44 H44           -1.4995    -6.4564     6.2940 H       
  45 H45           -2.9403    -7.5928     8.7315 H       
  46 H46           -3.1602    -8.9964     6.6512 H       
  47 H47           -1.3840    -9.0417     6.5443 H       
  48 H48           -3.7424   -11.1178     7.2099 H       
  49 H49           -2.0948   -11.5327     6.6791 H       
  50 H50           -1.6613   -12.6124     8.8689 H       
  51 H51           -3.3088   -12.1975     9.3996 H       
  52 H52           -4.2467   -13.5426     7.5396 H       
  53 H53           -2.5992   -13.9574     7.0088 H       
  54 H54           -2.1656   -15.0371     9.1986 H       
  55 H55           -3.8132   -14.6223     9.7293 H       
  56 H56           -4.7511   -15.9673     7.8693 H       
  57 H57           -3.1035   -16.3822     7.3385 H       
  58 H58           -2.6699   -17.4619     9.5283 H       
  59 H59           -4.3175   -17.0470    10.0590 H       
  60 H60           -0.4905    -9.4515     9.2303 H       
  61 H61           -0.7768   -11.2082     9.2231 H       
  62 H62           -0.1728   -10.3989     7.7574 H       
  63 H63           -4.0675    -9.5692     9.0128 H       
  64 H64           -3.0204   -10.5624    10.0547 H       
  65 H65           -2.6611    -8.8349     9.8198 H       
  66 H66           -3.2517   -19.5839    10.0863 H       
  67 H67           -5.0278   -19.5375    10.1944 H       
  68 H68           -3.4740   -20.9874     8.0061 H       
  69 H69           -3.1464   -21.9753    10.2928 H       
  70 H70           -4.9137   -22.1228    10.4447 H       
  71 H71           -5.6355   -17.3716     7.5150 H       
  72 H72           -5.9218   -19.1283     7.5080 H       
  73 H73           -6.2396   -18.1807     8.9808 H       
  74 H74           -2.3449   -19.0105     7.7253 H       
  75 H75           -3.7512   -19.7448     6.9183 H       
  76 H76           -3.3919   -18.0173     6.6834 H       
  77 H77           -1.4828   -26.0967     7.0893 H       
  78 H78           -2.6590   -28.0367     6.1263 H       
  79 H79           -5.0963   -28.2402     6.3362 H       
  80 H80           -6.3952   -26.5067     7.5119 H       
  81 H81           -0.0228    -2.0718     9.2282 H       
  82 H82           -1.3235    -0.3391    10.4031 H       
  83 H83           -3.7609    -0.5439    10.6106 H       
  84 H84           -4.9353    -2.4846     9.6468 H       
  85 H85           -0.8069    -8.0515     9.6057 H       
  86 H86           -0.0216    -7.9370     8.0125 H       
  87 H87           -0.5655    -6.4606     8.8448 H       
  88 H88           -6.3918   -20.6410     8.7270 H       
  89 H89           -5.6075   -20.5277     7.1332 H       
  90 H90           -5.8498   -22.1181     7.8949 H       
@<TRIPOS>BOND
   1    1    2 1
   2    1   31 am
   3    1   34 am
   4    2    3 1
   5    2   43 1
   6    2   44 1
   7    3    4 1
   8    3   41 1
   9    3   45 1
  10    4    5 1
  11    4   46 1
  12    4   47 1
  13    5    6 1
  14    5   12 1
  15    5   13 1
  16    6    7 1
  17    6   48 1
  18    6   49 1
  19    7    8 1
  20    7   50 1
  21    7   51 1
  22    8    9 1
  23    8   52 1
  24    8   53 1
  25    9   10 1
  26    9   54 1
  27    9   55 1
  28   10   11 1
  29   10   56 1
  30   10   57 1
  31   11   14 1
  32   11   58 1
  33   11   59 1
  34   12   60 1
  35   12   61 1
  36   12   62 1
  37   13   63 1
  38   13   64 1
  39   13   65 1
  40   14   15 1
  41   14   19 1
  42   14   20 1
  43   15   16 1
  44   15   66 1
  45   15   67 1
  46   16   17 1
  47   16   42 1
  48   16   68 1
  49   17   18 1
  50   17   69 1
  51   17   70 1
  52   18   21 am
  53   18   24 am
  54   19   71 1
  55   19   72 1
  56   19   73 1
  57   20   74 1
  58   20   75 1
  59   20   76 1
  60   21   22 1
  61   21   30 2
  62   22   23 ar
  63   22   25 ar
  64   23   24 1
  65   23   28 ar
  66   24   29 2
  67   25   26 ar
  68   25   77 1
  69   26   27 ar
  70   26   78 1
  71   27   28 ar
  72   27   79 1
  73   28   80 1
  74   31   32 1
  75   31   39 2
  76   32   33 ar
  77   32   35 ar
  78   33   34 1
  79   33   38 ar
  80   34   40 2
  81   35   36 ar
  82   35   81 1
  83   36   37 ar
  84   36   82 1
  85   37   38 ar
  86   37   83 1
  87   38   84 1
  88   41   85 1
  89   41   86 1
  90   41   87 1
  91   42   88 1
  92   42   89 1
  93   42   90 1

#	End of record

