#	Name: ASD03082410
#	Creating user name:	WinNT
#	Creation time:	15. 06. 2019 20:27

#	Modifying user name:	WinNT
#	Modification time:	15. 06. 2019 20:27

#	Program:	/corina/corina34_cracker 3.40 0067  02.08.2006

@<TRIPOS>MOLECULE
ASD03082410
  53   56    0    0    0
SMALL
NO_CHARGES


@<TRIPOS>ATOM
   1 C1             0.8878     3.2554    -0.1896 C.ar    
   2 C2             1.9835     4.0801     0.0296 C.ar    
   3 C3             1.8181     5.4509     0.0712 C.ar    
   4 C4             0.5631     6.0042    -0.1050 C.ar    
   5 C5            -0.5323     5.1872    -0.3238 C.ar    
   6 Cl6           -2.1058     5.8864    -0.5451 Cl      
   7 N7             1.0527     1.8673    -0.2316 N.pl3   
   8 C8             2.3378     1.3151    -0.2238 C.2     
   9 C9             2.6461    -0.0539    -0.1444 C.2     
  10 N10            3.4639     1.9855    -0.2951 N.2     
  11 N11            4.5223     1.0685    -0.2583 N.pl3   
  12 C12            3.9919    -0.1789    -0.1655 C.2     
  13 C13            5.8838     1.3815    -0.3115 C.ar    
  14 C14            6.7771     0.5699    -1.0082 C.ar    
  15 C15            6.3819     2.5163     0.3260 C.ar    
  16 C16            7.7320     2.7903     0.2493 C.ar    
  17 N17            8.5470     1.9944    -0.4167 N.ar    
  18 C18            8.1131     0.9137    -1.0371 C.ar    
  19 C19            8.2828     4.0144     0.9344 C.3     
  20 C20            9.0900     0.0409    -1.7822 C.3     
  21 C21            4.7654    -1.4705    -0.0978 C.3     
  22 C22            4.8486    -2.0790    -1.4739 C.2     
  23 C23           -0.3746     3.8128    -0.3614 C.ar    
  24 N24            5.4985    -3.2455    -1.6568 N.am    
  25 C25            5.5793    -3.8371    -2.9946 C.3     
  26 O26            4.3308    -1.5191    -2.4169 O.2     
  27 C27            6.3646    -5.1483    -2.9258 C.3     
  28 F28           -1.4434     3.0146    -0.5754 F       
  29 C29            6.4606    -5.9823    -4.2050 C.3     
  30 C30            7.6858    -5.2217    -3.6939 C.3     
  31 H31            2.9644     3.6499     0.1678 H       
  32 H32            2.6705     6.0917     0.2420 H       
  33 H33            0.4375     7.0763    -0.0716 H       
  34 H34            0.2758     1.2874    -0.2662 H       
  35 H35            1.9337    -0.8629    -0.0778 H       
  36 H36            6.4286    -0.3160    -1.5182 H       
  37 H37            5.7202     3.1722     0.8721 H       
  38 H38            8.5756     3.7598     1.9530 H       
  39 H39            9.1523     4.3772     0.3863 H       
  40 H40            7.5188     4.7914     0.9594 H       
  41 H41            9.4822    -0.7218    -1.1094 H       
  42 H42            8.5832    -0.4390    -2.6194 H       
  43 H43            9.9111     0.6522    -2.1566 H       
  44 H44            5.7710    -1.2727     0.2734 H       
  45 H45            4.2592    -2.1623     0.5754 H       
  46 H46            5.9126    -3.6934    -0.9026 H       
  47 H47            4.5737    -4.0349    -3.3658 H       
  48 H48            6.0856    -3.1453    -3.6678 H       
  49 H49            6.3022    -5.6846    -1.9789 H       
  50 H50            6.4616    -7.0672    -4.0996 H       
  51 H51            5.9642    -5.5968    -5.0955 H       
  52 H52            7.9955    -4.3358    -4.2483 H       
  53 H53            8.4930    -5.8062    -3.2523 H       
@<TRIPOS>BOND
   1    1    2 ar
   2    1    7 1
   3    1   23 ar
   4    2    3 ar
   5    2   31 1
   6    3    4 ar
   7    3   32 1
   8    4    5 ar
   9    4   33 1
  10    5   23 ar
  11    5    6 1
  12    7    8 1
  13    7   34 1
  14    8    9 1
  15    8   10 2
  16    9   12 2
  17    9   35 1
  18   10   11 1
  19   11   12 1
  20   11   13 1
  21   12   21 1
  22   13   14 ar
  23   13   15 ar
  24   14   18 ar
  25   14   36 1
  26   15   16 ar
  27   15   37 1
  28   16   17 ar
  29   16   19 1
  30   17   18 ar
  31   18   20 1
  32   19   38 1
  33   19   39 1
  34   19   40 1
  35   20   41 1
  36   20   42 1
  37   20   43 1
  38   21   22 1
  39   21   44 1
  40   21   45 1
  41   22   24 am
  42   22   26 2
  43   23   28 1
  44   24   25 1
  45   24   46 1
  46   25   27 1
  47   25   47 1
  48   25   48 1
  49   27   29 1
  50   27   30 1
  51   27   49 1
  52   29   30 1
  53   29   50 1
  54   29   51 1
  55   30   52 1
  56   30   53 1

#	End of record

