#	Name: ASD04881142
#	Creating user name:	WinNT
#	Creation time:	15. 06. 2019 20:53

#	Modifying user name:	WinNT
#	Modification time:	15. 06. 2019 20:53

#	Program:	/corina/corina34_cracker 3.40 0067  02.08.2006

@<TRIPOS>MOLECULE
ASD04881142
  85   90    0    0    0
SMALL
NO_CHARGES


@<TRIPOS>ATOM
   1 C1             0.2003     1.5150    -1.0255 C.2     
   2 C2             1.3777     1.9341    -0.4865 C.2     
   3 C3             1.9065     3.3099    -0.5001 C.2     
   4 O4             1.2712     4.2004    -1.0320 O.2     
   5 N5             1.9747     0.8440     0.0674 N.2     
   6 C6             1.2063    -0.1867    -0.1213 C.2     
   7 O7             0.1095     0.1963    -0.7900 O.3     
   8 N8             3.0940     3.5812     0.0767 N.am    
   9 C9             3.6336     4.8718    -0.0040 C.ar    
  10 C10            5.0164     5.0585     0.0809 C.ar    
  11 C11            5.5530     6.3380     0.0005 C.ar    
  12 C12            4.7247     7.4266    -0.1626 C.ar    
  13 C13            3.3417     7.2471    -0.2482 C.ar    
  14 C14            2.7998     5.9604    -0.1733 C.ar    
  15 C15            2.4548     8.4131    -0.4224 C.2     
  16 O16            1.2514     8.2559    -0.4968 O.2     
  17 N17            2.9786     9.6526    -0.4992 N.am    
  18 N18            5.8573     3.9610     0.2467 N.3     
  19 C19            6.8065     3.8521    -0.8684 C.3     
  20 C20            7.6137     2.5595    -0.7286 C.3     
  21 C21            8.3647     2.5743     0.6058 C.3     
  22 C22            7.3574     2.7372     1.7475 C.3     
  23 C23            6.5576     4.0247     1.5358 C.3     
  24 C24            9.1140     1.2780     0.7764 C.ar    
  25 C25            8.5396     0.2348     1.4784 C.ar    
  26 C26            9.2270    -0.9542     1.6349 C.ar    
  27 C27           10.4885    -1.1003     1.0890 C.ar    
  28 C28           11.0626    -0.0575     0.3862 C.ar    
  29 C29           10.3734     1.1300     0.2260 C.ar    
  30 C30            2.0979    10.8105    -0.6722 C.3     
  31 C31            2.9392    12.0871    -0.7289 C.3     
  32 C32            2.0195    13.2964    -0.9096 C.3     
  33 N33            2.8251    14.5188    -0.9639 N.am    
  34 C34            1.5019    -1.5911     0.3386 C.3     
  35 C35            3.3694    15.0977    -2.1978 C.3     
  36 C36            4.4721    16.0786    -1.7413 C.3     
  37 C37            4.0026    16.4380    -0.3125 C.3     
  38 C38            3.1558    15.2575     0.1094 C.2     
  39 O39            2.8255    15.0119     1.2502 O.2     
  40 C40            0.5098    -2.2415     1.3048 C.3     
  41 C41            0.5746    -2.7049    -0.1519 C.3     
  42 N42            9.3098     3.6935     0.6233 N.am    
  43 C43           10.1473     3.8520     1.6672 C.2     
  44 C44           11.0417     5.0628     1.7387 C.3     
  45 O45           10.1813     3.0201     2.5491 O.2     
  46 H46           -0.5250     2.1275    -1.5405 H       
  47 H47            3.5751     2.8829     0.5478 H       
  48 H48            6.6217     6.4792     0.0664 H       
  49 H49            5.1447     8.4197    -0.2240 H       
  50 H50            1.7315     5.8182    -0.2436 H       
  51 H51            3.9386     9.7780    -0.4398 H       
  52 H52            6.2594     3.8384    -1.8111 H       
  53 H53            7.4834     4.7064    -0.8540 H       
  54 H54            6.9388     1.7041    -0.7568 H       
  55 H55            8.3290     2.4867    -1.5479 H       
  56 H56            6.6785     1.8846     1.7582 H       
  57 H57            7.8896     2.7913     2.6972 H       
  58 H58            7.2357     4.8781     1.5391 H       
  59 H59            5.8297     4.1363     2.3395 H       
  60 H60            7.5540     0.3490     1.9049 H       
  61 H61            8.7785    -1.7690     2.1840 H       
  62 H62           11.0259    -2.0291     1.2119 H       
  63 H63           12.0483    -0.1715    -0.0400 H       
  64 H64           10.8203     1.9435    -0.3262 H       
  65 H65            1.5360    10.7041    -1.6001 H       
  66 H66            1.4052    10.8688     0.1674 H       
  67 H67            3.5011    12.1935     0.1990 H       
  68 H68            3.6319    12.0288    -1.5685 H       
  69 H69            1.4576    13.1901    -1.8375 H       
  70 H70            1.3268    13.3547    -0.0700 H       
  71 H71            2.5575    -1.8327     0.4628 H       
  72 H72            3.7966    14.3153    -2.8250 H       
  73 H73            2.5894    15.6327    -2.7396 H       
  74 H74            5.4456    15.5888    -1.7204 H       
  75 H75            4.4956    16.9629    -2.3782 H       
  76 H76            4.8585    16.5540     0.3524 H       
  77 H77            3.4025    17.3478    -0.3257 H       
  78 H78            0.9127    -2.9114     2.0645 H       
  79 H79           -0.3566    -1.6536     1.6079 H       
  80 H80           -0.2491    -2.4219    -0.8072 H       
  81 H81            1.0202    -3.6796    -0.3506 H       
  82 H82            9.3328     4.3205    -0.1165 H       
  83 H83           10.8720     5.6919     0.8649 H       
  84 H84           10.8161     5.6283     2.6428 H       
  85 H85           12.0838     4.7440     1.7600 H       
@<TRIPOS>BOND
   1    1    7 1
   2    1    2 2
   3    1   46 1
   4    2    3 1
   5    2    5 1
   6    3    4 2
   7    3    8 am
   8    5    6 2
   9    6    7 1
  10    6   34 1
  11    8    9 1
  12    8   47 1
  13    9   10 ar
  14    9   14 ar
  15   10   11 ar
  16   10   18 1
  17   11   12 ar
  18   11   48 1
  19   12   13 ar
  20   12   49 1
  21   13   14 ar
  22   13   15 1
  23   14   50 1
  24   15   16 2
  25   15   17 am
  26   17   30 1
  27   17   51 1
  28   18   19 1
  29   18   23 1
  30   19   20 1
  31   19   52 1
  32   19   53 1
  33   20   21 1
  34   20   54 1
  35   20   55 1
  36   21   22 1
  37   21   24 1
  38   21   42 1
  39   22   23 1
  40   22   56 1
  41   22   57 1
  42   23   58 1
  43   23   59 1
  44   24   25 ar
  45   24   29 ar
  46   25   26 ar
  47   25   60 1
  48   26   27 ar
  49   26   61 1
  50   27   28 ar
  51   27   62 1
  52   28   29 ar
  53   28   63 1
  54   29   64 1
  55   30   31 1
  56   30   65 1
  57   30   66 1
  58   31   32 1
  59   31   67 1
  60   31   68 1
  61   32   33 1
  62   32   69 1
  63   32   70 1
  64   33   35 1
  65   33   38 am
  66   34   40 1
  67   34   41 1
  68   34   71 1
  69   35   36 1
  70   35   72 1
  71   35   73 1
  72   36   37 1
  73   36   74 1
  74   36   75 1
  75   37   38 1
  76   37   76 1
  77   37   77 1
  78   38   39 2
  79   40   41 1
  80   40   78 1
  81   40   79 1
  82   41   80 1
  83   41   81 1
  84   42   43 am
  85   42   82 1
  86   43   44 1
  87   43   45 2
  88   44   83 1
  89   44   84 1
  90   44   85 1

#	End of record

