#	Name: ASD01816013
#	Creating user name:	WinNT
#	Creation time:	15. 06. 2019 19:34

#	Modifying user name:	WinNT
#	Modification time:	15. 06. 2019 19:34

#	Program:	/corina/corina34_cracker 3.40 0067  02.08.2006

@<TRIPOS>MOLECULE
ASD01816013
  47   52    0    0    0
SMALL
NO_CHARGES


@<TRIPOS>ATOM
   1 C1            -0.0167     1.3813     0.0096 C.ar    
   2 C2             0.0021    -0.0041     0.0020 C.ar    
   3 C3             1.1985    -0.6908    -0.0131 C.ar    
   4 C4             2.4014     0.0060    -0.0209 C.ar    
   5 C5             2.3791     1.4105    -0.0132 C.ar    
   6 C6             1.1663     2.0916     0.0022 C.ar    
   7 N7             3.6066    -0.6779    -0.0356 N.pl3   
   8 C8             4.7997    -0.0569    -0.0437 C.2     
   9 C9             4.9005     1.3120    -0.0373 C.2     
  10 C10            3.6669     2.1305    -0.0217 C.2     
  11 C11            5.9969     2.2760    -0.0426 C.2     
  12 N12            5.4230     3.4985    -0.0311 N.am    
  13 N13            4.0309     3.3808    -0.0187 N.2     
  14 C14            6.1236     4.7114    -0.0317 C.ar    
  15 O15            7.1915     2.0273    -0.0550 O.2     
  16 C16            3.5813    -2.0734    -0.0419 C.ar    
  17 C17            6.5509     5.2676    -1.2300 C.ar    
  18 C18            7.2416     6.4638    -1.2275 C.ar    
  19 C19            7.5088     7.1083    -0.0335 C.ar    
  20 C20            7.0855     6.5587     1.1626 C.ar    
  21 C21            6.3880     5.3644     1.1674 C.ar    
  22 F22            5.9739     4.8273     2.3359 F       
  23 C23            3.5800    -2.7912     1.1737 C.ar    
  24 C24            3.5516    -2.7630    -1.2350 C.ar    
  25 C25            3.5258    -4.1545    -1.2522 C.ar    
  26 C26            3.5291    -4.8720    -0.0951 C.ar    
  27 C27            3.5542    -4.2070     1.1430 C.ar    
  28 C28            3.5584    -4.9220     2.3532 C.ar    
  29 C29            3.5829    -4.2463     3.5345 C.ar    
  30 C30            3.6036    -2.8534     3.5636 C.ar    
  31 C31            3.6043    -2.1287     2.4107 C.ar    
  32 H32           -0.9602     1.9068     0.0170 H       
  33 H33           -0.9288    -0.5516     0.0083 H       
  34 H34            1.2006    -1.7708    -0.0186 H       
  35 H35            1.1507     3.1715     0.0084 H       
  36 H36            5.7017    -0.6508    -0.0551 H       
  37 H37            6.3437     4.7652    -2.1632 H       
  38 H38            7.5739     6.8963    -2.1597 H       
  39 H39            8.0497     8.0431    -0.0352 H       
  40 H40            7.2961     7.0644     2.0933 H       
  41 H41            3.5480    -2.2174    -2.1671 H       
  42 H42            3.5023    -4.6736    -2.1990 H       
  43 H43            3.5084    -5.9512    -0.1285 H       
  44 H44            3.5418    -6.0018     2.3458 H       
  45 H45            3.5860    -4.7980     4.4630 H       
  46 H46            3.6225    -2.3411     4.5142 H       
  47 H47            3.6208    -1.0495     2.4481 H       
@<TRIPOS>BOND
   1    1    2 ar
   2    1    6 ar
   3    1   32 1
   4    2    3 ar
   5    2   33 1
   6    3    4 ar
   7    3   34 1
   8    4    5 ar
   9    4    7 1
  10    5    6 ar
  11    5   10 1
  12    6   35 1
  13    7    8 1
  14    7   16 1
  15    8    9 2
  16    8   36 1
  17    9   10 1
  18    9   11 1
  19   10   13 2
  20   11   12 am
  21   11   15 2
  22   12   13 1
  23   12   14 1
  24   14   17 ar
  25   14   21 ar
  26   16   23 ar
  27   16   24 ar
  28   17   18 ar
  29   17   37 1
  30   18   19 ar
  31   18   38 1
  32   19   20 ar
  33   19   39 1
  34   20   21 ar
  35   20   40 1
  36   21   22 1
  37   23   27 ar
  38   23   31 ar
  39   24   25 ar
  40   24   41 1
  41   25   26 ar
  42   25   42 1
  43   26   27 ar
  44   26   43 1
  45   27   28 ar
  46   28   29 ar
  47   28   44 1
  48   29   30 ar
  49   29   45 1
  50   30   31 ar
  51   30   46 1
  52   31   47 1

#	End of record

