#	Name: ASD03950007
#	Creating user name:	WinNT
#	Creation time:	15. 06. 2019 20:48

#	Modifying user name:	WinNT
#	Modification time:	15. 06. 2019 20:48

#	Program:	/corina/corina34_cracker 3.40 0067  02.08.2006

@<TRIPOS>MOLECULE
ASD03950007
  69   73    0    0    0
SMALL
NO_CHARGES


@<TRIPOS>ATOM
   1 C1             0.4559     0.8888     0.0632 C.3     
   2 N2             0.5657    -0.5753     0.1243 N.3     
   3 C3             1.3091    -1.0936    -1.0326 C.3     
   4 C4             2.7111    -0.4798    -1.0512 C.3     
   5 N5             2.6013     0.9843    -1.1122 N.3     
   6 C6             1.8578     1.5026     0.0446 C.3     
   7 C7            -0.7608    -1.1992     0.2200 C.3     
   8 C8             3.9278     1.6082    -1.2080 C.3     
   9 C9             3.7695     3.0979    -1.5188 C.3     
  10 C10            5.1511     3.7477    -1.6185 C.3     
  11 O11            5.0033     5.1390    -1.9088 O.3     
  12 C12            6.1440     5.8687    -2.0309 C.ar    
  13 C13            7.3790     5.2552    -1.8798 C.ar    
  14 C14            6.0726     7.2253    -2.3122 C.ar    
  15 C15            7.2308     7.9668    -2.4364 C.ar    
  16 C16            8.4668     7.3545    -2.2796 C.ar    
  17 C17            8.5378     5.9958    -2.0033 C.ar    
  18 N18            9.6438     8.1073    -2.4060 N.am    
  19 C19            9.9049     9.0836    -1.5529 C.2     
  20 C20           11.1662     9.7941    -1.7922 C.2     
  21 S21           11.8509     8.9891    -3.2181 S.3     
  22 C22           10.5131     7.8391    -3.3872 C.2     
  23 S23           10.3609     6.6199    -4.5794 S.2     
  24 O24            9.1551     9.3714    -0.6383 O.2     
  25 C25           11.6890    10.8287    -1.0857 C.2     
  26 C26           13.0606    11.2804    -1.3514 C.ar    
  27 C27           13.5249    12.4802    -0.7981 C.ar    
  28 C28           13.9110    10.5100    -2.1543 C.ar    
  29 C29           15.1961    10.9380    -2.3998 C.ar    
  30 C30           15.6504    12.1324    -1.8518 C.ar    
  31 C31           14.8119    12.8987    -1.0500 C.ar    
  32 O32           16.9189    12.5493    -2.0964 O.3     
  33 C33           17.1845    13.1094    -3.3060 C.ar    
  34 C34           17.7253    14.2498    -5.7688 C.ar    
  35 C35           18.7590    13.9899    -4.8850 C.ar    
  36 C36           18.4906    13.4207    -3.6553 C.ar    
  37 C37           16.1504    13.3651    -4.1949 C.ar    
  38 C38           16.4219    13.9344    -5.4239 C.ar    
  39 F39           17.9893    14.8065    -6.9711 F       
  40 H40           -0.0788     1.1760    -0.8422 H       
  41 H41           -0.0874     1.2495     0.9366 H       
  42 H42            1.3879    -2.1781    -0.9580 H       
  43 H43            0.7841    -0.8290    -1.9504 H       
  44 H44            3.2458    -0.7670    -0.1457 H       
  45 H45            3.2544    -0.8405    -1.9246 H       
  46 H46            1.7790     2.5871    -0.0299 H       
  47 H47            2.3828     1.2380     0.9625 H       
  48 H48           -1.3532    -0.9293    -0.6542 H       
  49 H49           -0.6504    -2.2827     0.2637 H       
  50 H50           -1.2631    -0.8485     1.1216 H       
  51 H51            4.4547     1.4886    -0.2613 H       
  52 H52            4.4978     1.1295    -2.0042 H       
  53 H53            3.2426     3.2176    -2.4654 H       
  54 H54            3.1994     3.5766    -0.7226 H       
  55 H55            5.6780     3.6280    -0.6719 H       
  56 H56            5.7212     3.2689    -2.4147 H       
  57 H57            7.4341     4.1982    -1.6652 H       
  58 H58            5.1109     7.7014    -2.4345 H       
  59 H59            7.1751     9.0228    -2.6557 H       
  60 H60            9.4993     5.5183    -1.8849 H       
  61 H61           11.0960    11.3196    -0.3282 H       
  62 H62           12.8744    13.0762    -0.1751 H       
  63 H63           13.5594     9.5818    -2.5798 H       
  64 H64           15.8528    10.3447    -3.0188 H       
  65 H65           15.1709    13.8240    -0.6242 H       
  66 H66           19.7751    14.2364    -5.1555 H       
  67 H67           19.2971    13.2184    -2.9661 H       
  68 H68           15.1338    13.1189    -3.9263 H       
  69 H69           15.6166    14.1377    -6.1143 H       
@<TRIPOS>BOND
   1    1    2 1
   2    1    6 1
   3    1   40 1
   4    1   41 1
   5    2    3 1
   6    2    7 1
   7    3    4 1
   8    3   42 1
   9    3   43 1
  10    4    5 1
  11    4   44 1
  12    4   45 1
  13    5    6 1
  14    5    8 1
  15    6   46 1
  16    6   47 1
  17    7   48 1
  18    7   49 1
  19    7   50 1
  20    8    9 1
  21    8   51 1
  22    8   52 1
  23    9   10 1
  24    9   53 1
  25    9   54 1
  26   10   11 1
  27   10   55 1
  28   10   56 1
  29   11   12 1
  30   12   14 ar
  31   12   13 ar
  32   13   17 ar
  33   13   57 1
  34   14   15 ar
  35   14   58 1
  36   15   16 ar
  37   15   59 1
  38   16   17 ar
  39   16   18 1
  40   17   60 1
  41   18   19 am
  42   18   22 am
  43   19   20 1
  44   19   24 2
  45   20   21 1
  46   20   25 2
  47   21   22 1
  48   22   23 2
  49   25   26 1
  50   25   61 1
  51   26   28 ar
  52   26   27 ar
  53   27   31 ar
  54   27   62 1
  55   28   29 ar
  56   28   63 1
  57   29   30 ar
  58   29   64 1
  59   30   31 ar
  60   30   32 1
  61   31   65 1
  62   32   33 1
  63   33   37 ar
  64   33   36 ar
  65   34   35 ar
  66   34   38 ar
  67   34   39 1
  68   35   36 ar
  69   35   66 1
  70   36   67 1
  71   37   38 ar
  72   37   68 1
  73   38   69 1

#	End of record

