#	Name: ASD01814669
#	Creating user name:	WinNT
#	Creation time:	15. 06. 2019 19:32

#	Modifying user name:	WinNT
#	Modification time:	15. 06. 2019 19:32

#	Program:	/corina/corina34_cracker 3.40 0067  02.08.2006

@<TRIPOS>MOLECULE
ASD01814669
  51   55    0    0    0
SMALL
NO_CHARGES


@<TRIPOS>ATOM
   1 C1            -0.0169     1.3972     0.0097 C.2     
   2 C2             0.0021    -0.0041     0.0020 C.2     
   3 C3             1.1986    -0.6593    -0.0129 C.2     
   4 C4             2.3918     0.0821    -0.0204 C.2     
   5 N5             2.3437     1.4497    -0.0122 N.am    
   6 C6             1.1421     2.0937     0.0024 C.2     
   7 C7             3.6227    -0.5889    -0.0356 C.2     
   8 C8             4.7877     0.1218    -0.0425 C.2     
   9 C9             4.7345     1.5280    -0.0346 C.2     
  10 C10            3.4812     2.1736    -0.0189 C.2     
  11 O11            3.4258     3.3917    -0.0123 O.2     
  12 C12            5.9703     2.3140    -0.0413 C.2     
  13 O13            5.9124     3.6618    -0.0337 O.3     
  14 O14            7.0487     1.7516    -0.0537 O.2     
  15 C15            3.6593    -2.0954    -0.0439 C.3     
  16 N16            3.7787    -2.5747    -1.4274 N.3     
  17 C17            5.0762    -2.1893    -2.0096 C.3     
  18 C18            5.1871    -2.8328    -3.3710 C.2     
  19 N19            4.3790    -3.8581    -3.7899 N.pl3   
  20 C20            3.3225    -4.4439    -2.9550 C.3     
  21 C21            3.5752    -4.0282    -1.5006 C.3     
  22 C22            6.0446    -2.5350    -4.3565 C.2     
  23 C23            5.7617    -3.4065    -5.4401 C.2     
  24 C24            4.7303    -4.2058    -5.0549 C.2     
  25 C25            6.4614    -3.4397    -6.7513 C.2     
  26 C26            6.1766    -4.3057    -7.8238 C.2     
  27 N27            7.0022    -4.0306    -8.7993 N.2     
  28 N28            7.8403    -2.9859    -8.3906 N.pl3   
  29 C29            7.4911    -2.6331    -7.1350 C.2     
  30 C30            8.9076    -2.3778    -9.1890 C.3     
  31 H31           -0.9605     1.9226     0.0170 H       
  32 H32           -0.9233    -0.5609     0.0082 H       
  33 H33            1.2282    -1.7389    -0.0187 H       
  34 H34            1.1156     3.1733     0.0087 H       
  35 H35            5.7393    -0.3889    -0.0536 H       
  36 H36            6.7544     4.1373    -0.0385 H       
  37 H37            4.5153    -2.4412     0.5356 H       
  38 H38            2.7412    -2.4836     0.3971 H       
  39 H39            5.1277    -1.1051    -2.1093 H       
  40 H40            5.8858    -2.5398    -1.3695 H       
  41 H41            2.3499    -4.0741    -3.2797 H       
  42 H42            3.3494    -5.5305    -3.0365 H       
  43 H43            4.4633    -4.5380    -1.1270 H       
  44 H44            2.7158    -4.3049    -0.8900 H       
  45 H45            6.8091    -1.7726    -4.3311 H       
  46 H46            4.2715    -4.9810    -5.6506 H       
  47 H47            5.4094    -5.0657    -7.8382 H       
  48 H48            7.9488    -1.8566    -6.5401 H       
  49 H49            8.5027    -1.5430    -9.7611 H       
  50 H50            9.6953    -2.0169    -8.5277 H       
  51 H51            9.3188    -3.1210    -9.8721 H       
@<TRIPOS>BOND
   1    1    2 1
   2    1    6 2
   3    1   31 1
   4    2    3 2
   5    2   32 1
   6    3    4 1
   7    3   33 1
   8    4    5 1
   9    4    7 2
  10    5    6 1
  11    5   10 am
  12    6   34 1
  13    7    8 1
  14    7   15 1
  15    8    9 2
  16    8   35 1
  17    9   10 1
  18    9   12 1
  19   10   11 2
  20   12   13 1
  21   12   14 2
  22   13   36 1
  23   15   16 1
  24   15   37 1
  25   15   38 1
  26   16   17 1
  27   16   21 1
  28   17   18 1
  29   17   39 1
  30   17   40 1
  31   18   19 1
  32   18   22 2
  33   19   20 1
  34   19   24 1
  35   20   21 1
  36   20   41 1
  37   20   42 1
  38   21   43 1
  39   21   44 1
  40   22   23 1
  41   22   45 1
  42   23   24 2
  43   23   25 1
  44   24   46 1
  45   25   26 1
  46   25   29 2
  47   26   27 2
  48   26   47 1
  49   27   28 1
  50   28   29 1
  51   28   30 1
  52   29   48 1
  53   30   49 1
  54   30   50 1
  55   30   51 1

#	End of record

