#	Name: ASD00843512
#	Creating user name:	WinNT
#	Creation time:	15. 06. 2019 18:47

#	Modifying user name:	WinNT
#	Modification time:	15. 06. 2019 18:47

#	Program:	/corina/corina34_cracker 3.40 0067  02.08.2006

@<TRIPOS>MOLECULE
ASD00843512
  94   99    0    0    0
SMALL
NO_CHARGES


@<TRIPOS>ATOM
   1 F1             5.5727    -2.3881    -2.0715 F       
   2 N2             0.7595     1.0370    -0.2448 N.ar    
   3 C3             0.9576    -0.2409    -0.5218 C.ar    
   4 C4             0.8649    -1.2039     0.4752 C.ar    
   5 C5             0.5617    -0.8091     1.7664 C.ar    
   6 C6             0.3609     0.5418     2.0158 C.ar    
   7 C7             0.4690     1.4438     0.9765 C.ar    
   8 C8             1.0909    -2.6590     0.1548 C.3     
   9 C9             0.7970    -3.5200     1.3645 C.2     
  10 C10            0.2233    -3.0863    -1.0307 C.3     
  11 C11           -1.2199    -2.7655    -0.7385 C.2     
  12 N12           -2.1840    -3.1567    -1.5952 N.am    
  13 O13           -1.5137    -2.1553     0.2676 O.2     
  14 C14           -3.5846    -2.7584    -1.3884 C.3     
  15 C15           -4.1154    -2.1509    -2.6913 C.3     
  16 N16           -3.8947    -3.0959    -3.7940 N.3     
  17 C17           -2.4619    -3.3370    -4.0105 C.3     
  18 C18           -1.8624    -3.9881    -2.7651 C.3     
  19 C19           -4.5417    -2.6270    -5.0267 C.3     
  20 C20           -4.1877    -3.5690    -6.1807 C.3     
  21 C21           -4.9130    -3.1105    -7.4479 C.3     
  22 N22           -6.3626    -3.1179    -7.2135 N.3     
  23 C23           -6.7319    -2.1851    -6.1411 C.3     
  24 C24           -6.0608    -2.6160    -4.8349 C.3     
  25 C25           -7.0973    -2.8167    -8.4494 C.3     
  26 O26           -0.2681    -3.6188     1.9363 O.2     
  27 N27            1.9365    -4.1548     1.6860 N.am    
  28 C28            2.5524    -2.9166    -0.1348 C.ar    
  29 C29            2.9868    -3.8236     0.8265 C.ar    
  30 C30            3.4106    -2.4372    -1.0996 C.ar    
  31 C31            4.7294    -2.8564    -1.1256 C.ar    
  32 C32            5.1839    -3.7678    -0.1671 C.ar    
  33 C33            4.3096    -4.2495     0.8068 C.ar    
  34 C34            1.7001    -6.8172     2.3422 C.ar    
  35 C35            2.7063    -7.6162     1.8315 C.ar    
  36 C36            0.3977    -7.2799     2.3783 C.ar    
  37 C37            0.0986    -8.5424     1.9038 C.ar    
  38 C38            1.1063    -9.3461     1.3908 C.ar    
  39 C39            2.4123    -8.8793     1.3553 C.ar    
  40 O40            0.8147   -10.5885     0.9238 O.3     
  41 H41            3.7228    -7.2525     1.8044 H       
  42 C42            1.9022   -11.3603     0.4101 C.3     
  43 C43           -8.5998    -2.9556    -8.1962 C.3     
  44 C44           -6.7849    -1.3860    -8.8925 C.3     
  45 C45            6.5467    -4.2071    -0.1862 C.1     
  46 N46            7.6279    -4.5555    -0.2014 N.1     
  47 S47            2.0795    -5.2093     2.9549 S.o2    
  48 O48            3.4560    -5.2286     3.3074 O.2     
  49 O49            1.0469    -4.8755     3.8723 O.2     
  50 O50            1.2539    -0.6151    -1.7918 O.3     
  51 C51            1.2833     0.4153    -2.7815 C.3     
  52 C52            1.7334    -0.1752    -4.1193 C.3     
  53 F53            2.9740    -0.8016    -3.9587 F       
  54 F54            0.7909    -1.1123    -4.5561 F       
  55 H55            0.4826    -1.5354     2.5618 H       
  56 H56            0.1225     0.8832     3.0123 H       
  57 H57            0.3142     2.4959     1.1653 H       
  58 H58            0.5407    -2.5502    -1.9252 H       
  59 H59            0.3316    -4.1588    -1.1923 H       
  60 H60           -4.1787    -3.6330    -1.1236 H       
  61 H61           -3.6409    -2.0186    -0.5899 H       
  62 H62           -5.1823    -1.9512    -2.5914 H       
  63 H63           -3.5886    -1.2196    -2.8994 H       
  64 H64           -2.3296    -3.9977    -4.8673 H       
  65 H65           -1.9581    -2.3892    -4.2003 H       
  66 H66           -0.7807    -4.0639    -2.8762 H       
  67 H67           -2.2899    -4.9815    -2.6294 H       
  68 H68           -4.1957    -1.6199    -5.2593 H       
  69 H69           -3.1111    -3.5484    -6.3500 H       
  70 H70           -4.4980    -4.5835    -5.9307 H       
  71 H71           -4.5919    -2.1012    -7.7051 H       
  72 H72           -4.6743    -3.7875    -8.2681 H       
  73 H73           -6.4022    -1.1801    -6.4045 H       
  74 H74           -7.8142    -2.1901    -6.0122 H       
  75 H75           -6.4006    -3.6155    -4.5637 H       
  76 H76           -6.3226    -1.9146    -4.0427 H       
  77 H77           -6.7946    -3.5135    -9.2310 H       
  78 H78            3.0539    -1.7335    -1.8371 H       
  79 H79            4.6610    -4.9534     1.5468 H       
  80 H80           -0.3864    -6.6540     2.7781 H       
  81 H81           -0.9188    -8.9035     1.9325 H       
  82 H82            3.1986    -9.5032     0.9568 H       
  83 H83            2.6446   -11.5089     1.1942 H       
  84 H84            1.5327   -12.3282     0.0714 H       
  85 H85            2.3587   -10.8324    -0.4272 H       
  86 H86           -8.9025    -2.2588    -7.4146 H       
  87 H87           -9.1450    -2.7321    -9.1133 H       
  88 H88           -8.8224    -3.9749    -7.8805 H       
  89 H89           -5.7145    -1.2870    -9.0729 H       
  90 H90           -7.3301    -1.1625    -9.8096 H       
  91 H91           -7.0876    -0.6892    -8.1109 H       
  92 H92            0.2867     0.8433    -2.8902 H       
  93 H93            1.9816     1.1940    -2.4747 H       
  94 H94            1.8218     0.6222    -4.8571 H       
@<TRIPOS>BOND
   1    1   31 1
   2    2    3 ar
   3    2    7 ar
   4    3    4 ar
   5    3   50 1
   6    4    5 ar
   7    4    8 1
   8    5    6 ar
   9    5   55 1
  10    6    7 ar
  11    6   56 1
  12    7   57 1
  13    8    9 1
  14    8   10 1
  15    8   28 1
  16    9   26 2
  17    9   27 am
  18   10   11 1
  19   10   58 1
  20   10   59 1
  21   11   12 am
  22   11   13 2
  23   12   14 1
  24   12   18 1
  25   14   15 1
  26   14   60 1
  27   14   61 1
  28   15   16 1
  29   15   62 1
  30   15   63 1
  31   16   17 1
  32   16   19 1
  33   17   18 1
  34   17   64 1
  35   17   65 1
  36   18   66 1
  37   18   67 1
  38   19   20 1
  39   19   24 1
  40   19   68 1
  41   20   21 1
  42   20   69 1
  43   20   70 1
  44   21   22 1
  45   21   71 1
  46   21   72 1
  47   22   23 1
  48   22   25 1
  49   23   24 1
  50   23   73 1
  51   23   74 1
  52   24   75 1
  53   24   76 1
  54   25   43 1
  55   25   44 1
  56   25   77 1
  57   27   47 am
  58   27   29 1
  59   28   29 ar
  60   28   30 ar
  61   29   33 ar
  62   30   31 ar
  63   30   78 1
  64   31   32 ar
  65   32   33 ar
  66   32   45 1
  67   33   79 1
  68   34   35 ar
  69   34   36 ar
  70   34   47 1
  71   35   41 1
  72   35   39 ar
  73   36   37 ar
  74   36   80 1
  75   37   38 ar
  76   37   81 1
  77   38   39 ar
  78   38   40 1
  79   39   82 1
  80   40   42 1
  81   42   83 1
  82   42   84 1
  83   42   85 1
  84   43   86 1
  85   43   87 1
  86   43   88 1
  87   44   89 1
  88   44   90 1
  89   44   91 1
  90   45   46 3
  91   47   48 2
  92   47   49 2
  93   50   51 1
  94   51   52 1
  95   51   92 1
  96   51   93 1
  97   52   53 1
  98   52   54 1
  99   52   94 1

#	End of record

