#	Name: ASD01914196
#	Creating user name:	WinNT
#	Creation time:	15. 06. 2019 20:03

#	Modifying user name:	WinNT
#	Modification time:	15. 06. 2019 20:03

#	Program:	/corina/corina34_cracker 3.40 0067  02.08.2006

@<TRIPOS>MOLECULE
ASD01914196
  37   38    0    0    0
SMALL
NO_CHARGES


@<TRIPOS>ATOM
   1 C1             0.0674     1.3120    -0.1610 C.ar    
   2 C2             1.0463     1.7649    -1.0278 C.ar    
   3 C3             2.2452     1.0829    -1.1334 C.ar    
   4 C4             2.4647    -0.0504    -0.3730 C.ar    
   5 C5             1.4862    -0.5026     0.4924 C.ar    
   6 C6             0.2879     0.1789     0.5986 C.ar    
   7 S7            -1.4572     2.1841    -0.0205 S.o2    
   8 O8            -2.2297     1.4883     0.9481 O.2     
   9 O9            -1.1230     3.5605     0.0945 O.2     
  10 N10           -2.2533     2.0152    -1.4628 N.am    
  11 C11           -3.0538     0.8158    -1.7215 C.3     
  12 C12           -4.5149     1.0900    -1.3595 C.3     
  13 C13           -5.3192    -0.1151    -1.6194 C.1     
  14 C14           -5.9607    -1.0763    -1.8267 C.1     
  15 C15           -6.7432    -2.2486    -2.0796 C.ar    
  16 C16           -8.1146    -2.2345    -1.8222 C.ar    
  17 C17           -8.8567    -3.3751    -2.0717 C.ar    
  18 C18           -8.2047    -4.4943    -2.5709 C.ar    
  19 C19           -6.8428    -4.4392    -2.8031 C.ar    
  20 N20           -6.1591    -3.3392    -2.5624 N.ar    
  21 C21           -2.1570     3.0651    -2.4800 C.3     
  22 Cl22           0.7698     3.1880    -1.9829 Cl      
  23 H23            3.0095     1.4357    -1.8100 H       
  24 H24            3.4006    -0.5829    -0.4553 H       
  25 H25            1.6579    -1.3885     1.0857 H       
  26 H26           -0.4761    -0.1747     1.2752 H       
  27 H27           -2.9842     0.5532    -2.7771 H       
  28 H28           -2.6782    -0.0092    -1.1163 H       
  29 H29           -4.5845     1.3526    -0.3039 H       
  30 H30           -4.8905     1.9150    -1.9647 H       
  31 H31           -8.5898    -1.3460    -1.4333 H       
  32 H32           -9.9198    -3.3944    -1.8820 H       
  33 H33           -8.7562    -5.4000    -2.7756 H       
  34 H34           -6.3332    -5.3088    -3.1911 H       
  35 H35           -1.3085     2.8615    -3.1331 H       
  36 H36           -3.0733     3.0844    -3.0701 H       
  37 H37           -2.0177     4.0305    -1.9936 H       
@<TRIPOS>BOND
   1    1    2 ar
   2    1    6 ar
   3    1    7 1
   4    2    3 ar
   5    2   22 1
   6    3    4 ar
   7    3   23 1
   8    4    5 ar
   9    4   24 1
  10    5    6 ar
  11    5   25 1
  12    6   26 1
  13    7    8 2
  14    7    9 2
  15    7   10 am
  16   10   11 1
  17   10   21 1
  18   11   12 1
  19   11   27 1
  20   11   28 1
  21   12   13 1
  22   12   29 1
  23   12   30 1
  24   13   14 3
  25   14   15 1
  26   15   16 ar
  27   15   20 ar
  28   16   17 ar
  29   16   31 1
  30   17   18 ar
  31   17   32 1
  32   18   19 ar
  33   18   33 1
  34   19   20 ar
  35   19   34 1
  36   21   35 1
  37   21   36 1
  38   21   37 1

#	End of record

