#	Name: ASD01916772
#	Creating user name:	WinNT
#	Creation time:	15. 06. 2019 20:08

#	Modifying user name:	WinNT
#	Modification time:	15. 06. 2019 20:08

#	Program:	/corina/corina34_cracker 3.40 0067  02.08.2006

@<TRIPOS>MOLECULE
ASD01916772
  59   63    0    0    0
SMALL
NO_CHARGES


@<TRIPOS>ATOM
   1 C1             0.0017     1.3317     0.1696 C.ar    
   2 C2             0.0383    -0.0259     0.4351 C.ar    
   3 C3             1.2585    -0.6759     0.5822 C.ar    
   4 C4             2.4400     0.0350     0.4631 C.ar    
   5 C5             2.4028     1.4019     0.1958 C.ar    
   6 C6             1.1767     2.0468     0.0496 C.ar    
   7 C7             3.6667     2.1692     0.0676 C.2     
   8 N8             4.8989     1.6627     0.1869 N.2     
   9 N9             3.7567     3.4567    -0.1875 N.2     
  10 N10            5.1248     3.7713    -0.2239 N.pl3   
  11 C11            5.7894     2.6169     0.0155 C.2     
  12 C12            7.2589     2.4558     0.0751 C.ar    
  13 C13            5.7158     5.0880    -0.4752 C.3     
  14 C14            5.8424     5.8383     0.8256 C.2     
  15 O15            5.4750     5.3238     1.8607 O.2     
  16 N16            6.3638     7.0811     0.8388 N.am    
  17 C17            6.4963     7.8308     2.0972 C.3     
  18 C18            7.9357     8.3444     2.2085 C.3     
  19 N19            8.2777     9.1002     0.9962 N.3     
  20 C20            8.2422     8.2413    -0.1950 C.3     
  21 C21            6.8209     7.7211    -0.4040 C.3     
  22 C22            9.5103     9.7162     1.1269 C.ar    
  23 N23            9.9793    10.4438     0.1239 N.ar    
  24 N24           10.1906     9.5687     2.2542 N.ar    
  25 C25           11.1535    11.0456     0.2164 C.ar    
  26 C26           11.8942    10.9077     1.3798 C.ar    
  27 C27           11.3713    10.1440     2.4115 C.ar    
  28 C28            8.0764     3.5650     0.2941 C.ar    
  29 F29           -1.1141    -0.7212     0.5521 F       
  30 C30            9.4456     3.4095     0.3493 C.ar    
  31 C31           10.0098     2.1540     0.1874 C.ar    
  32 C32            9.2023     1.0491    -0.0309 C.ar    
  33 C33            7.8316     1.1932    -0.0819 C.ar    
  34 F34           11.3517     2.0069     0.2423 F       
  35 O35            1.2911    -2.0098     0.8435 O.3     
  36 C36            2.5794    -2.6124     0.9825 C.3     
  37 H37           -0.9480     1.8321     0.0515 H       
  38 H38            3.3886    -0.4685     0.5775 H       
  39 H39            1.1452     3.1062    -0.1580 H       
  40 H40            6.7029     4.9642    -0.9207 H       
  41 H41            5.0770     5.6488    -1.1574 H       
  42 H42            5.8057     8.6742     2.0954 H       
  43 H43            6.2754     7.1749     2.9392 H       
  44 H44            8.0237     8.9943     3.0792 H       
  45 H45            8.6162     7.4995     2.3145 H       
  46 H46            8.5524     8.8163    -1.0674 H       
  47 H47            8.9184     7.3979    -0.0555 H       
  48 H48            6.8128     6.9945    -1.2164 H       
  49 H49            6.1586     8.5524    -0.6458 H       
  50 H50           11.5307    11.6371    -0.6048 H       
  51 H51           12.8561    11.3880     1.4817 H       
  52 H52           11.9231    10.0166     3.3312 H       
  53 H53            7.6377     4.5438     0.4200 H       
  54 H54           10.0793     4.2676     0.5184 H       
  55 H55            9.6468     0.0729    -0.1567 H       
  56 H56            7.2031     0.3315    -0.2517 H       
  57 H57            3.1435    -2.4809     0.0591 H       
  58 H58            3.1148    -2.1395     1.8058 H       
  59 H59            2.4625    -3.6763     1.1886 H       
@<TRIPOS>BOND
   1    1    2 ar
   2    1    6 ar
   3    1   37 1
   4    2    3 ar
   5    2   29 1
   6    3    4 ar
   7    3   35 1
   8    4    5 ar
   9    4   38 1
  10    5    6 ar
  11    5    7 1
  12    6   39 1
  13    7    8 1
  14    7    9 2
  15    8   11 2
  16    9   10 1
  17   10   11 1
  18   10   13 1
  19   11   12 1
  20   12   28 ar
  21   12   33 ar
  22   13   14 1
  23   13   40 1
  24   13   41 1
  25   14   15 2
  26   14   16 am
  27   16   17 1
  28   16   21 1
  29   17   18 1
  30   17   42 1
  31   17   43 1
  32   18   19 1
  33   18   44 1
  34   18   45 1
  35   19   20 1
  36   19   22 1
  37   20   21 1
  38   20   46 1
  39   20   47 1
  40   21   48 1
  41   21   49 1
  42   22   23 ar
  43   22   24 ar
  44   23   25 ar
  45   24   27 ar
  46   25   26 ar
  47   25   50 1
  48   26   27 ar
  49   26   51 1
  50   27   52 1
  51   28   30 ar
  52   28   53 1
  53   30   31 ar
  54   30   54 1
  55   31   32 ar
  56   31   34 1
  57   32   33 ar
  58   32   55 1
  59   33   56 1
  60   35   36 1
  61   36   57 1
  62   36   58 1
  63   36   59 1

#	End of record

