#	Name: ASD07931698
#	Creating user name:	WinNT
#	Creation time:	15. 06. 2019 21:13

#	Modifying user name:	WinNT
#	Modification time:	15. 06. 2019 21:13

#	Program:	/corina/corina34_cracker 3.40 0067  02.08.2006

@<TRIPOS>MOLECULE
ASD07931698
  54   58    0    0    0
SMALL
NO_CHARGES


@<TRIPOS>ATOM
   1 C1            -0.0367     1.5645     0.1324 C.2     
   2 C2            -0.0457     0.2021     0.2558 C.2     
   3 C3             1.2329    -0.5112     0.3066 C.2     
   4 N4             2.3793     0.1870     0.2329 N.am    
   5 C5             2.3621     1.5577     0.1069 C.2     
   6 C6             1.1867     2.2419     0.0576 C.2     
   7 C7             3.6788    -0.4962     0.2871 C.3     
   8 C8             4.6128     0.1762    -0.7301 C.3     
   9 N9             4.7529     1.5940    -0.3687 N.am    
  10 C10            3.6519     2.2781     0.0242 C.2     
  11 C11            6.0589     2.2547    -0.4321 C.3     
  12 O12            1.2570    -1.7254     0.4149 O.2     
  13 N13           -1.2536    -0.4970     0.3325 N.pl3   
  14 C14           -2.2038    -0.5936    -0.6516 C.2     
  15 C15           -1.7059    -1.2145     1.3945 C.2     
  16 N16           -2.8694    -1.7205     1.0887 N.2     
  17 C17           -3.1988    -1.3557    -0.1596 C.2     
  18 C18           -4.4641    -1.7335    -0.8857 C.3     
  19 O19            3.7218     3.4595     0.3027 O.2     
  20 C20            6.1091     3.4258    -1.4277 C.3     
  21 C21            6.9549     4.1741    -0.3839 C.3     
  22 C22            6.2783     3.2938     0.6801 C.3     
  23 O23            4.8352     4.0265    -1.6694 O.3     
  24 C24            4.6900     4.7191    -2.8296 C.ar    
  25 C25            3.4494     5.2287    -3.1839 C.ar    
  26 C26            3.3043     5.9325    -4.3640 C.ar    
  27 C27            4.3942     6.1290    -5.1914 C.ar    
  28 C28            5.6319     5.6216    -4.8407 C.ar    
  29 C29            5.7835     4.9227    -3.6591 C.ar    
  30 C30            2.2608     5.0144    -2.2826 C.3     
  31 F31            1.1318     5.6161    -2.8487 F       
  32 F32            2.0316     3.6426    -2.1312 F       
  33 F33            2.5155     5.5855    -1.0311 F       
  34 H34           -0.9660     2.1130     0.0886 H       
  35 H35            1.1975     3.3174    -0.0404 H       
  36 H36            4.1000    -0.4076     1.2885 H       
  37 H37            3.5526    -1.5484     0.0317 H       
  38 H38            5.5898    -0.3064    -0.7050 H       
  39 H39            4.1860     0.0935    -1.7297 H       
  40 H40            6.8842     1.5514    -0.5434 H       
  41 H41           -2.1619    -0.1446    -1.6329 H       
  42 H42           -1.1890    -1.3445     2.3338 H       
  43 H43           -5.2315    -0.9839    -0.6926 H       
  44 H44           -4.2671    -1.7844    -1.9565 H       
  45 H45           -4.8089    -2.7056    -0.5331 H       
  46 H46            6.6508     3.1959    -2.3452 H       
  47 H47            8.0259     3.9962    -0.4810 H       
  48 H48            6.7066     5.2319    -0.2977 H       
  49 H49            5.3529     3.7159     1.0720 H       
  50 H50            6.9566     2.9574     1.4643 H       
  51 H51            2.3386     6.3291    -4.6404 H       
  52 H52            4.2787     6.6794    -6.1134 H       
  53 H53            6.4818     5.7762    -5.4890 H       
  54 H54            6.7504     4.5270    -3.3854 H       
@<TRIPOS>BOND
   1    1    2 2
   2    1    6 1
   3    1   34 1
   4    2    3 1
   5    2   13 1
   6    3    4 am
   7    3   12 2
   8    4    5 1
   9    4    7 1
  10    5    6 2
  11    5   10 1
  12    6   35 1
  13    7    8 1
  14    7   36 1
  15    7   37 1
  16    8    9 1
  17    8   38 1
  18    8   39 1
  19    9   10 am
  20    9   11 1
  21   10   19 2
  22   11   20 1
  23   11   22 1
  24   11   40 1
  25   13   14 1
  26   13   15 1
  27   14   17 2
  28   14   41 1
  29   15   16 2
  30   15   42 1
  31   16   17 1
  32   17   18 1
  33   18   43 1
  34   18   44 1
  35   18   45 1
  36   20   21 1
  37   20   23 1
  38   20   46 1
  39   21   22 1
  40   21   47 1
  41   21   48 1
  42   22   49 1
  43   22   50 1
  44   23   24 1
  45   24   25 ar
  46   24   29 ar
  47   25   26 ar
  48   25   30 1
  49   26   27 ar
  50   26   51 1
  51   27   28 ar
  52   27   52 1
  53   28   29 ar
  54   28   53 1
  55   29   54 1
  56   30   31 1
  57   30   32 1
  58   30   33 1

#	End of record

