#	Name: ASD03750007
#	Creating user name:	WinNT
#	Creation time:	15. 06. 2019 20:47

#	Modifying user name:	WinNT
#	Modification time:	15. 06. 2019 20:47

#	Program:	/corina/corina34_cracker 3.40 0067  02.08.2006

@<TRIPOS>MOLECULE
ASD03750007
 113  119    0    0    0
SMALL
NO_CHARGES


@<TRIPOS>ATOM
   1 C1             0.1597     1.3933    -0.4907 C.3     
   2 C2            -0.5041     1.8092     0.8077 C.3     
   3 C3            -1.1794     0.6491     1.5440 C.3     
   4 C4            -0.2095    -0.5131     1.7082 C.3     
   5 C5             0.0766    -1.1004     0.3329 C.3     
   6 C6             0.3911    -0.0671    -0.7457 C.3     
   7 C7             0.4652     2.4764     1.7644 C.2     
   8 C8             0.7968     3.9705     1.5284 C.3     
   9 C9             0.8650     3.2572    -2.0594 C.3     
  10 C10           -0.2379     2.1964    -1.7447 C.3     
  11 C11            1.5110     3.9076     0.1886 C.2     
  12 C12            0.8815     4.4180    -1.0801 C.3     
  13 C13            2.7045     3.3556     0.0994 C.2     
  14 C14            3.2967     3.1589    -1.2815 C.3     
  15 C15            2.2253     2.6111    -2.2212 C.3     
  16 C16            3.5028     2.9384     1.3185 C.3     
  17 O17            4.3703     2.1696    -1.1752 O.3     
  18 O18           -0.2255     1.2922    -2.9053 O.3     
  19 O19            1.7048    -0.3209    -1.3300 O.3     
  20 H20            1.1965     1.7486    -0.3182 H       
  21 H21            0.8620    -1.8692     0.3904 H       
  22 O22           -2.3432     0.2576     0.8244 O.3     
  23 O23           -0.3178     4.8422     1.6702 O.3     
  24 C24           -1.6834     2.7170     0.5732 C.3     
  25 O25            0.5207     3.8046    -3.3465 O.3     
  26 C26            1.7712     5.5472    -1.6476 C.3     
  27 C27           -0.4958     5.0379    -0.9556 C.3     
  28 C28            5.6034     2.6336    -0.9186 C.2     
  29 C29            6.7590     1.6742    -0.7954 C.3     
  30 O30            5.7869     3.8205    -0.7864 O.2     
  31 C31            6.9997     0.9900    -2.1426 C.3     
  32 C32            8.1553     0.0306    -2.0194 C.ar    
  33 N33            7.3108     2.0017    -3.1554 N.am    
  34 O34           -1.0595    -1.5292    -0.4081 O.3     
  35 C35           -0.7462    -0.7274    -1.5588 C.3     
  36 C36            1.9815    -1.5867    -1.6807 C.2     
  37 C37            3.3594    -1.9483    -2.1722 C.3     
  38 O38            1.1258    -2.4361    -1.6024 O.2     
  39 C39           -1.0384     1.6051    -3.9329 C.2     
  40 C40           -1.0788     0.7429    -5.1318 C.ar    
  41 O41           -1.7383     2.5962    -3.8738 O.2     
  42 C42           -0.2799    -0.4002    -5.2007 C.ar    
  43 C43           -1.9202     1.0642    -6.1987 C.ar    
  44 C44           -1.9533     0.2544    -7.3150 C.ar    
  45 C45           -1.1554    -0.8743    -7.3787 C.ar    
  46 C46           -0.3229    -1.2012    -6.3230 C.ar    
  47 O47            0.9580     1.8796     2.6927 O.2     
  48 C48           -0.5469     5.3443     2.8938 C.2     
  49 C49           -1.7100     6.2754     3.1206 C.3     
  50 O50            0.1794     5.0498     3.8134 O.2     
  51 O51            7.9334     2.3903    -0.4083 O.3     
  52 C52            7.0711     1.7480    -4.4572 C.2     
  53 C53            7.3851     2.7690    -5.4793 C.ar    
  54 O54            6.5968     0.6798    -4.7909 O.2     
  55 C55            7.1381     2.5095    -6.8283 C.ar    
  56 C56            7.4329     3.4667    -7.7770 C.ar    
  57 C57            7.9727     4.6816    -7.3938 C.ar    
  58 C58            8.2200     4.9453    -6.0583 C.ar    
  59 C59            7.9244     3.9989    -5.0990 C.ar    
  60 C60            7.9169    -1.3216    -1.8595 C.ar    
  61 C61            8.9769    -2.2017    -1.7464 C.ar    
  62 C62           10.2753    -1.7295    -1.7937 C.ar    
  63 C63           10.5136    -0.3774    -1.9545 C.ar    
  64 C64            9.4537     0.5021    -2.0719 C.ar    
  65 H65           -1.4746     1.0096     2.5335 H       
  66 H66            0.7204    -0.1720     2.1614 H       
  67 H67           -0.6525    -1.2834     2.3448 H       
  68 H68            1.5467     4.2502     2.2984 H       
  69 H69           -1.2067     2.6478    -1.7234 H       
  70 H70            3.7350     4.0706    -1.6646 H       
  71 H71            2.1478     1.5388    -2.1072 H       
  72 H72            2.5641     2.7989    -3.2534 H       
  73 H73            3.2608     1.9072     1.5757 H       
  74 H74            4.5677     3.0181     1.1002 H       
  75 H75            3.2538     3.5898     2.1562 H       
  76 H76           -2.8279    -0.4748     1.2290 H       
  77 H77           -1.3393     3.7489     0.5027 H       
  78 H78           -2.1798     2.4353    -0.3555 H       
  79 H79           -2.3844     2.6237     1.4026 H       
  80 H80            0.4945     3.1503    -4.0580 H       
  81 H81            2.7891     5.1786    -1.7746 H       
  82 H82            1.3784     5.8694    -2.6119 H       
  83 H83            1.7736     6.3900    -0.9563 H       
  84 H84           -0.5330     5.6647    -0.0645 H       
  85 H85           -0.7014     5.6462    -1.8364 H       
  86 H86           -1.2436     4.2489    -0.8763 H       
  87 H87            6.5275     0.9215    -0.0418 H       
  88 H88            6.1038     0.4438    -2.4379 H       
  89 H89            7.6893     2.8542    -2.8891 H       
  90 H90           -1.5576    -0.0481    -1.8366 H       
  91 H91           -0.3885    -1.3086    -2.4146 H       
  92 H92            3.9822    -2.2392    -1.3263 H       
  93 H93            3.2884    -2.7794    -2.8739 H       
  94 H94            3.8044    -1.0879    -2.6720 H       
  95 H95            0.3703    -0.6565    -4.3774 H       
  96 H96           -2.5440     1.9445    -6.1500 H       
  97 H97           -2.6036     0.5018    -8.1410 H       
  98 H98           -1.1855    -1.5050    -8.2548 H       
  99 H99            0.2945    -2.0857    -6.3776 H       
 100 H100          -2.6390     5.7646     2.8673 H       
 101 H101          -1.7350     6.5772     4.1676 H       
 102 H102          -1.5971     7.1578     2.4907 H       
 103 H103           8.1990     3.0780    -1.0341 H       
 104 H104           6.7174     1.5612    -7.1288 H       
 105 H105           7.2423     3.2671    -8.8212 H       
 106 H106           8.2024     5.4273    -8.1405 H       
 107 H107           8.6415     5.8956    -5.7657 H       
 108 H108           8.1138     4.2076    -4.0564 H       
 109 H109           6.9025    -1.6905    -1.8225 H       
 110 H110           8.7907    -3.2580    -1.6207 H       
 111 H111          11.1034    -2.4170    -1.7046 H       
 112 H112          11.5280    -0.0085    -1.9911 H       
 113 H113           9.6399     1.5580    -2.2013 H       
@<TRIPOS>BOND
   1    1    6 1
   2    1   20 1
   3    1    2 1
   4    1   10 1
   5    2    7 1
   6    2   24 1
   7    2    3 1
   8    3    4 1
   9    3   22 1
  10    3   65 1
  11    4    5 1
  12    4   66 1
  13    4   67 1
  14    5    6 1
  15    5   21 1
  16    5   34 1
  17    6   19 1
  18    6   35 1
  19    7    8 1
  20    7   47 2
  21    8   11 1
  22    8   23 1
  23    8   68 1
  24    9   25 1
  25    9   10 1
  26    9   12 1
  27    9   15 1
  28   10   18 1
  29   10   69 1
  30   11   12 1
  31   11   13 2
  32   12   26 1
  33   12   27 1
  34   13   14 1
  35   13   16 1
  36   14   15 1
  37   14   17 1
  38   14   70 1
  39   15   71 1
  40   15   72 1
  41   16   73 1
  42   16   74 1
  43   16   75 1
  44   17   28 1
  45   18   39 1
  46   19   36 1
  47   22   76 1
  48   23   48 1
  49   24   77 1
  50   24   78 1
  51   24   79 1
  52   25   80 1
  53   26   81 1
  54   26   82 1
  55   26   83 1
  56   27   84 1
  57   27   85 1
  58   27   86 1
  59   28   29 1
  60   28   30 2
  61   29   31 1
  62   29   51 1
  63   29   87 1
  64   31   32 1
  65   31   33 1
  66   31   88 1
  67   32   60 ar
  68   32   64 ar
  69   33   52 am
  70   33   89 1
  71   34   35 1
  72   35   90 1
  73   35   91 1
  74   36   37 1
  75   36   38 2
  76   37   92 1
  77   37   93 1
  78   37   94 1
  79   39   40 1
  80   39   41 2
  81   40   43 ar
  82   40   42 ar
  83   42   46 ar
  84   42   95 1
  85   43   44 ar
  86   43   96 1
  87   44   45 ar
  88   44   97 1
  89   45   46 ar
  90   45   98 1
  91   46   99 1
  92   48   49 1
  93   48   50 2
  94   49  100 1
  95   49  101 1
  96   49  102 1
  97   51  103 1
  98   52   53 1
  99   52   54 2
 100   53   55 ar
 101   53   59 ar
 102   55   56 ar
 103   55  104 1
 104   56   57 ar
 105   56  105 1
 106   57   58 ar
 107   57  106 1
 108   58   59 ar
 109   58  107 1
 110   59  108 1
 111   60   61 ar
 112   60  109 1
 113   61   62 ar
 114   61  110 1
 115   62   63 ar
 116   62  111 1
 117   63   64 ar
 118   63  112 1
 119   64  113 1

#	End of record

