#	Name: ASD06710054
#	Creating user name:	WinNT
#	Creation time:	15. 06. 2019 21:08

#	Modifying user name:	WinNT
#	Modification time:	15. 06. 2019 21:08

#	Program:	/corina/corina34_cracker 3.40 0067  02.08.2006

@<TRIPOS>MOLECULE
ASD06710054
  53   56    0    0    0
SMALL
NO_CHARGES


@<TRIPOS>ATOM
   1 C1            -0.0184     1.5028     0.0103 C.3     
   2 C2             0.0021    -0.0041     0.0020 C.ar    
   3 C3             0.0229    -0.7006     1.1962 C.ar    
   4 C4             0.0416    -2.0819     1.1913 C.ar    
   5 C5             0.0396    -2.7702    -0.0132 C.ar    
   6 C6             0.0187    -2.0690    -1.2101 C.ar    
   7 C7            -0.0057    -0.6878    -1.1997 C.ar    
   8 O8             0.0585    -4.1290    -0.0207 O.3     
   9 C9             0.0551    -4.7709    -1.2974 C.3     
  10 C10            0.0781    -6.2886    -1.1053 C.3     
  11 N11            0.0746    -6.9466    -2.4142 N.pl3   
  12 C12            1.1879    -7.3002    -3.1592 C.ar    
  13 C13            2.5544    -7.1759    -2.9631 C.ar    
  14 C14            3.4312    -7.6419    -3.9218 C.ar    
  15 C15            2.9543    -8.2343    -5.0812 C.ar    
  16 C16            1.5997    -8.3656    -5.2928 C.ar    
  17 C17            0.6991    -7.8996    -4.3322 C.ar    
  18 N18           -0.6573    -7.8858    -4.2534 N.2     
  19 C19           -1.0271    -7.3314    -3.1250 C.2     
  20 S20           -2.6958    -7.1111    -2.6042 S.3     
  21 C21           -3.5642    -7.8415    -4.0143 C.3     
  22 C22           -5.0742    -7.7616    -3.7805 C.3     
  23 O23           -5.7598    -8.3383    -4.8938 O.3     
  24 C24           -7.1178    -8.3474    -4.8446 C.ar    
  25 C25           -7.8474    -8.8918    -5.8915 C.ar    
  26 C26           -9.2278    -8.8998    -5.8392 C.ar    
  27 C27           -9.8824    -8.3658    -4.7446 C.ar    
  28 C28           -9.1576    -7.8222    -3.7002 C.ar    
  29 C29           -7.7769    -7.8174    -3.7449 C.ar    
  30 H30            1.0042     1.8801     0.0026 H       
  31 H31           -0.5455     1.8639    -0.8728 H       
  32 H32           -0.5286     1.8543     0.9071 H       
  33 H33            0.0248    -0.1643     2.1337 H       
  34 H34            0.0582    -2.6255     2.1244 H       
  35 H35            0.0171    -2.6025    -2.1491 H       
  36 H36           -0.0264    -0.1415    -2.1312 H       
  37 H37           -0.8443    -4.4875    -1.8442 H       
  38 H38            0.9354    -4.4626    -1.8614 H       
  39 H39            0.9775    -6.5720    -0.5585 H       
  40 H40           -0.8023    -6.5968    -0.5413 H       
  41 H41            2.9322    -6.7152    -2.0624 H       
  42 H42            4.4957    -7.5442    -3.7680 H       
  43 H43            3.6503    -8.5951    -5.8240 H       
  44 H44            1.2351    -8.8277    -6.1983 H       
  45 H45           -3.3077    -7.2950    -4.9218 H       
  46 H46           -3.2681    -8.8849    -4.1225 H       
  47 H47           -5.3307    -8.3081    -2.8730 H       
  48 H48           -5.3703    -6.7182    -3.6722 H       
  49 H49           -7.3365    -9.3087    -6.7469 H       
  50 H50           -9.7962    -9.3232    -6.6541 H       
  51 H51          -10.9617    -8.3730    -4.7056 H       
  52 H52           -9.6713    -7.4051    -2.8466 H       
  53 H53           -7.2111    -7.3970    -2.9266 H       
@<TRIPOS>BOND
   1    1    2 1
   2    1   30 1
   3    1   31 1
   4    1   32 1
   5    2    3 ar
   6    2    7 ar
   7    3    4 ar
   8    3   33 1
   9    4    5 ar
  10    4   34 1
  11    5    6 ar
  12    5    8 1
  13    6    7 ar
  14    6   35 1
  15    7   36 1
  16    8    9 1
  17    9   10 1
  18    9   37 1
  19    9   38 1
  20   10   11 1
  21   10   39 1
  22   10   40 1
  23   11   12 1
  24   11   19 1
  25   12   13 ar
  26   12   17 ar
  27   13   14 ar
  28   13   41 1
  29   14   15 ar
  30   14   42 1
  31   15   16 ar
  32   15   43 1
  33   16   17 ar
  34   16   44 1
  35   17   18 1
  36   18   19 2
  37   19   20 1
  38   20   21 1
  39   21   22 1
  40   21   45 1
  41   21   46 1
  42   22   23 1
  43   22   47 1
  44   22   48 1
  45   23   24 1
  46   24   25 ar
  47   24   29 ar
  48   25   26 ar
  49   25   49 1
  50   26   27 ar
  51   26   50 1
  52   27   28 ar
  53   27   51 1
  54   28   29 ar
  55   28   52 1
  56   29   53 1

#	End of record

