#	Name: ASD03091590
#	Creating user name:	WinNT
#	Creation time:	15. 06. 2019 20:31

#	Modifying user name:	WinNT
#	Modification time:	15. 06. 2019 20:31

#	Program:	/corina/corina34_cracker 3.40 0067  02.08.2006

@<TRIPOS>MOLECULE
ASD03091590
  40   43    0    0    0
SMALL
NO_CHARGES


@<TRIPOS>ATOM
   1 C1            -0.0170     1.4030     0.0098 C.ar    
   2 C2             0.0021    -0.0041     0.0020 C.ar    
   3 C3             1.2252    -0.6648    -0.0136 C.ar    
   4 C4             2.3967     0.0606    -0.0213 C.ar    
   5 C5             2.3720     1.4487    -0.0136 C.ar    
   6 C6             1.1821     2.1198     0.0022 C.ar    
   7 O7            -1.2763    -0.4288     0.0124 O.3     
   8 C8            -2.1299     0.6164     0.0264 C.2     
   9 C9            -1.4299     1.7801     0.0311 C.2     
  10 C10           -3.5958     0.5111     0.0399 C.2     
  11 O11           -4.2779     1.5183     0.0517 O.2     
  12 N12           -4.1844    -0.7014     0.0393 N.am    
  13 N13           -6.8753    -1.9602     1.8281 N.3     
  14 C14           -6.1526    -0.7252     1.4954 C.3     
  15 C15           -5.6455    -0.8064     0.0527 C.3     
  16 C16           -6.0696    -2.1534    -0.5459 C.3     
  17 C17           -7.5994    -2.2526    -0.4925 C.3     
  18 C18           -8.0522    -2.1320     0.9653 C.3     
  19 C19           -5.9885    -3.1290     1.7468 C.3     
  20 C20           -5.4761    -3.2783     0.3115 C.3     
  21 N21            1.2689    -2.1444    -0.0215 N.pl3   
  22 O22            2.3412    -2.7219    -0.0352 O.2     
  23 O23            0.2326    -2.7843    -0.0143 O.2     
  24 H24            3.3448    -0.4565    -0.0331 H       
  25 H25            3.2997     2.0018    -0.0195 H       
  26 H26            1.1685     3.1997     0.0079 H       
  27 H27           -1.8346     2.7814     0.0423 H       
  28 H28           -3.6405    -1.5045     0.0299 H       
  29 H29           -6.8238     0.1276     1.5975 H       
  30 H30           -5.3065    -0.6054     2.1721 H       
  31 H31           -6.0774     0.0055    -0.5325 H       
  32 H32           -5.7247    -2.2306    -1.5770 H       
  33 H33           -8.0384    -1.4457    -1.0793 H       
  34 H34           -7.9173    -3.2143    -0.8953 H       
  35 H35           -8.5874    -3.0360     1.2559 H       
  36 H36           -8.7101    -1.2694     1.0716 H       
  37 H37           -5.1438    -2.9924     2.4221 H       
  38 H38           -6.5405    -4.0249     2.0310 H       
  39 H39           -5.7855    -4.2441    -0.0881 H       
  40 H40           -4.3884    -3.2090     0.3030 H       
@<TRIPOS>BOND
   1    1    2 ar
   2    1    6 ar
   3    1    9 1
   4    2    3 ar
   5    2    7 1
   6    3    4 ar
   7    3   21 1
   8    4    5 ar
   9    4   24 1
  10    5    6 ar
  11    5   25 1
  12    6   26 1
  13    7    8 1
  14    8    9 2
  15    8   10 1
  16    9   27 1
  17   10   11 2
  18   10   12 am
  19   12   15 1
  20   12   28 1
  21   13   14 1
  22   13   18 1
  23   13   19 1
  24   14   15 1
  25   14   29 1
  26   14   30 1
  27   15   16 1
  28   15   31 1
  29   16   17 1
  30   16   20 1
  31   16   32 1
  32   17   18 1
  33   17   33 1
  34   17   34 1
  35   18   35 1
  36   18   36 1
  37   19   20 1
  38   19   37 1
  39   19   38 1
  40   20   39 1
  41   20   40 1
  42   21   22 2
  43   21   23 2

#	End of record

