#	Name: ASD01912608
#	Creating user name:	WinNT
#	Creation time:	15. 06. 2019 20:00

#	Modifying user name:	WinNT
#	Modification time:	15. 06. 2019 20:00

#	Program:	/corina/corina34_cracker 3.40 0067  02.08.2006

@<TRIPOS>MOLECULE
ASD01912608
  60   64    0    0    0
SMALL
NO_CHARGES


@<TRIPOS>ATOM
   1 C1             0.0004     1.4165    -0.3881 C.ar    
   2 C2            -1.2144     1.9576     0.0332 C.ar    
   3 C3             1.2604     2.1625    -0.1729 C.2     
   4 N4             1.3790     3.5089     0.0077 N.pl3   
   5 C5             2.5138     1.6275    -0.1135 C.2     
   6 C6             3.4195     2.6795     0.1035 C.2     
   7 N7             2.7379     3.8037     0.1756 N.2     
   8 C8             4.8921     2.5459     0.2340 C.ar    
   9 C9             5.5018     1.3083     0.0391 C.ar    
  10 C10            5.6699     3.6585     0.5461 C.ar    
  11 C11            7.0390     3.5285     0.6663 C.ar    
  12 C12            7.6385     2.2967     0.4770 C.ar    
  13 C13            6.8712     1.1896     0.1617 C.ar    
  14 C14            0.2791     4.4765     0.0227 C.3     
  15 C15           -0.1671     4.7078     1.4434 C.2     
  16 N16           -1.1740     5.5655     1.7023 N.am    
  17 O17            0.3797     4.1221     2.3538 O.2     
  18 C18           -1.6251     5.8059     3.0814 C.3     
  19 C19           -1.6544     7.3181     3.3275 C.3     
  20 N20           -2.4652     7.9647     2.2871 N.3     
  21 C21           -1.8711     7.7794     0.9565 C.3     
  22 C22           -1.8466     6.2907     0.6138 C.3     
  23 C23           -2.6505     9.3137     2.5665 C.ar    
  24 N24           -2.1167     9.8368     3.6597 N.ar    
  25 C25           -2.2682    11.1122     3.9615 C.ar    
  26 C26           -2.9948    11.9524     3.1415 C.ar    
  27 C27           -3.5709    11.4433     1.9854 C.ar    
  28 C28           -3.3900    10.1034     1.6924 C.ar    
  29 C29           -2.3856     1.2570    -0.1698 C.ar    
  30 C30           -2.3568     0.0203    -0.7893 C.ar    
  31 C31           -1.1552    -0.5218    -1.2089 C.ar    
  32 C32            0.0234     0.1670    -1.0077 C.ar    
  33 C33            7.8819     4.7313     1.0039 C.3     
  34 H34           -1.2380     2.9226     0.5175 H       
  35 H35            2.7651     0.5820    -0.2145 H       
  36 H36            4.9037     0.4433    -0.2070 H       
  37 H37            5.2029     4.6210     0.6934 H       
  38 H38            8.7100     2.1996     0.5713 H       
  39 H39            7.3444     0.2299     0.0149 H       
  40 H40            0.6176     5.4181    -0.4096 H       
  41 H41           -0.5549     4.0876    -0.5614 H       
  42 H42           -2.6250     5.3935     3.2167 H       
  43 H43           -0.9340     5.3345     3.7802 H       
  44 H44           -2.0906     7.5190     4.3060 H       
  45 H45           -0.6385     7.7118     3.2940 H       
  46 H46           -2.4645     8.3149     0.2154 H       
  47 H47           -0.8522     8.1666     0.9560 H       
  48 H48           -1.3044     6.1386    -0.3195 H       
  49 H49           -2.8672     5.9216     0.5119 H       
  50 H50           -1.8183    11.5041     4.8617 H       
  51 H51           -3.1141    12.9949     3.3969 H       
  52 H52           -4.1442    12.0798     1.3277 H       
  53 H53           -3.8240     9.6746     0.8012 H       
  54 H54           -3.3268     1.6748     0.1559 H       
  55 H55           -3.2762    -0.5244    -0.9456 H       
  56 H56           -1.1391    -1.4880    -1.6912 H       
  57 H57            0.9609    -0.2573    -1.3357 H       
  58 H58            7.9777     4.8156     2.0864 H       
  59 H59            8.8707     4.6184     0.5593 H       
  60 H60            7.4070     5.6299     0.6101 H       
@<TRIPOS>BOND
   1    1    2 ar
   2    1    3 1
   3    1   32 ar
   4    2   29 ar
   5    2   34 1
   6    3    4 1
   7    3    5 2
   8    4   14 1
   9    4    7 1
  10    5    6 1
  11    5   35 1
  12    6    7 2
  13    6    8 1
  14    8    9 ar
  15    8   10 ar
  16    9   13 ar
  17    9   36 1
  18   10   11 ar
  19   10   37 1
  20   11   12 ar
  21   11   33 1
  22   12   13 ar
  23   12   38 1
  24   13   39 1
  25   14   15 1
  26   14   40 1
  27   14   41 1
  28   15   16 am
  29   15   17 2
  30   16   18 1
  31   16   22 1
  32   18   19 1
  33   18   42 1
  34   18   43 1
  35   19   20 1
  36   19   44 1
  37   19   45 1
  38   20   21 1
  39   20   23 1
  40   21   22 1
  41   21   46 1
  42   21   47 1
  43   22   48 1
  44   22   49 1
  45   23   24 ar
  46   23   28 ar
  47   24   25 ar
  48   25   26 ar
  49   25   50 1
  50   26   27 ar
  51   26   51 1
  52   27   28 ar
  53   27   52 1
  54   28   53 1
  55   29   30 ar
  56   29   54 1
  57   30   31 ar
  58   30   55 1
  59   31   32 ar
  60   31   56 1
  61   32   57 1
  62   33   58 1
  63   33   59 1
  64   33   60 1

#	End of record

