#	Name: ASD01150343
#	Creating user name:	WinNT
#	Creation time:	15. 06. 2019 19:04

#	Modifying user name:	WinNT
#	Modification time:	15. 06. 2019 19:04

#	Program:	/corina/corina34_cracker 3.40 0067  02.08.2006

@<TRIPOS>MOLECULE
ASD01150343
  72   75    0    0    0
SMALL
NO_CHARGES


@<TRIPOS>ATOM
   1 N1            -0.0169     1.3925     0.0097 N.pl3   
   2 C2             0.0021    -0.0041     0.0020 C.2     
   3 C3            -1.3278    -0.4052     0.0134 C.2     
   4 N4            -2.0856     0.6946     0.0270 N.2     
   5 C5            -1.3233     1.7681     0.0302 C.2     
   6 C6             1.1393    -0.8369    -0.0144 C.2     
   7 C7             1.0965     2.2427     0.0036 C.ar    
   8 C8             1.3308     3.0744    -1.0833 C.ar    
   9 C9             2.4293     3.9116    -1.0863 C.ar    
  10 C10            3.2954     3.9220    -0.0084 C.ar    
  11 C11            3.0648     3.0949     1.0755 C.ar    
  12 C12            1.9648     2.2597     1.0870 C.ar    
  13 N13           -1.7778     3.0666     0.0433 N.3     
  14 C14           -3.2461     3.1105     0.0530 C.3     
  15 C15           -1.2214     3.8076     1.1832 C.3     
  16 O16            1.0073    -2.0475    -0.0195 O.2     
  17 O17            2.3750    -0.2923    -0.0246 O.3     
  18 C18            3.4820    -1.1958    -0.0411 C.3     
  19 C19            3.4079    -2.0703    -1.2943 C.3     
  20 C20            4.7891    -0.4007    -0.0506 C.3     
  21 C21            3.4342    -2.0837     1.2040 C.3     
  22 N22           -1.7879    -1.7175     0.0106 N.am    
  23 C23           -3.1123    -1.9673     0.0228 C.2     
  24 O24           -3.9027    -1.0476     0.0362 O.2     
  25 C25           -3.6109    -3.3894     0.0199 C.3     
  26 C26           -5.1420    -3.3948     0.0356 C.3     
  27 C27           -5.6429    -4.8395    -0.0290 C.3     
  28 N28           -5.1458    -5.4768    -1.2551 N.3     
  29 C29           -3.6783    -5.5257    -1.2707 C.3     
  30 C30           -3.1188    -4.1016    -1.2431 C.3     
  31 C31           -5.6859    -6.7416    -1.4106 C.ar    
  32 N32           -5.3459    -7.4645    -2.4674 N.ar    
  33 C33           -5.8439    -8.6770    -2.6460 C.ar    
  34 C34           -6.7306    -9.1880    -1.7116 C.ar    
  35 C35           -7.0648    -8.4049    -0.6176 C.ar    
  36 N36           -6.5267    -7.2028    -0.4962 N.ar    
  37 C37           -5.4522    -9.4925    -3.8513 C.3     
  38 F38           -4.4691    -8.8105    -4.5763 F       
  39 F39           -4.9498   -10.7297    -3.4340 F       
  40 F40           -6.5740    -9.6942    -4.6624 F       
  41 H41            0.6549     3.0665    -1.9256 H       
  42 H42            2.6122     4.5584    -1.9316 H       
  43 H43            4.1539     4.5772    -0.0132 H       
  44 H44            3.7432     3.1050     1.9158 H       
  45 H45            1.7850     1.6142     1.9340 H       
  46 H46           -3.6189     2.6007     0.9414 H       
  47 H47           -3.5785     4.1485     0.0633 H       
  48 H48           -3.6303     2.6147    -0.8385 H       
  49 H49           -0.1337     3.8186     1.1134 H       
  50 H50           -1.5968     4.8308     1.1695 H       
  51 H51           -1.5210     3.3231     2.1125 H       
  52 H52            3.4419    -1.4378    -2.1813 H       
  53 H53            4.2523    -2.7595    -1.3069 H       
  54 H54            2.4767    -2.6368    -1.2875 H       
  55 H55            4.8419     0.2224     0.8422 H       
  56 H56            5.6335    -1.0898    -0.0632 H       
  57 H57            4.8231     0.2319    -0.9376 H       
  58 H58            2.5030    -2.6502     1.2108 H       
  59 H59            4.2786    -2.7729     1.1914 H       
  60 H60            3.4870    -1.4607     2.0968 H       
  61 H61           -1.1557    -2.4531    -0.0001 H       
  62 H62           -3.2357    -3.9088     0.9017 H       
  63 H63           -5.4982    -2.9269     0.9533 H       
  64 H64           -5.5167    -2.8409    -0.8252 H       
  65 H65           -5.2792    -5.3891     0.8391 H       
  66 H66           -6.7328    -4.8462    -0.0324 H       
  67 H67           -3.3238    -6.0722    -0.3967 H       
  68 H68           -3.3413    -6.0309    -2.1759 H       
  69 H69           -3.4617    -3.5588    -2.1240 H       
  70 H70           -2.0294    -4.1386    -1.2390 H       
  71 H71           -7.1523   -10.1749    -1.8332 H       
  72 H72           -7.7531    -8.7735     0.1286 H       
@<TRIPOS>BOND
   1    1    2 1
   2    1    7 1
   3    1    5 1
   4    2    3 2
   5    2    6 1
   6    3    4 1
   7    3   22 1
   8    4    5 2
   9    5   13 1
  10    6   16 2
  11    6   17 1
  12    7    8 ar
  13    7   12 ar
  14    8    9 ar
  15    8   41 1
  16    9   10 ar
  17    9   42 1
  18   10   11 ar
  19   10   43 1
  20   11   12 ar
  21   11   44 1
  22   12   45 1
  23   13   14 1
  24   13   15 1
  25   14   46 1
  26   14   47 1
  27   14   48 1
  28   15   49 1
  29   15   50 1
  30   15   51 1
  31   17   18 1
  32   18   19 1
  33   18   20 1
  34   18   21 1
  35   19   52 1
  36   19   53 1
  37   19   54 1
  38   20   55 1
  39   20   56 1
  40   20   57 1
  41   21   58 1
  42   21   59 1
  43   21   60 1
  44   22   23 am
  45   22   61 1
  46   23   24 2
  47   23   25 1
  48   25   26 1
  49   25   30 1
  50   25   62 1
  51   26   27 1
  52   26   63 1
  53   26   64 1
  54   27   28 1
  55   27   65 1
  56   27   66 1
  57   28   29 1
  58   28   31 1
  59   29   30 1
  60   29   67 1
  61   29   68 1
  62   30   69 1
  63   30   70 1
  64   31   32 ar
  65   31   36 ar
  66   32   33 ar
  67   33   34 ar
  68   33   37 1
  69   34   35 ar
  70   34   71 1
  71   35   36 ar
  72   35   72 1
  73   37   38 1
  74   37   39 1
  75   37   40 1

#	End of record

