#	Name: ASD01410764
#	Creating user name:	WinNT
#	Creation time:	15. 06. 2019 19:18

#	Modifying user name:	WinNT
#	Modification time:	15. 06. 2019 19:18

#	Program:	/corina/corina34_cracker 3.40 0067  02.08.2006

@<TRIPOS>MOLECULE
ASD01410764
 115  122    0    0    0
SMALL
NO_CHARGES


@<TRIPOS>ATOM
   1 C1             2.2621     1.4375    -0.4740 C.3     
   2 C2             1.6445    -2.2130    -1.4861 C.3     
   3 C3             1.5400    -0.6753    -1.5968 C.3     
   4 N4             2.5634    -0.3289    -2.5975 N.am    
   5 C5             2.5112    -1.3820    -3.6239 C.3     
   6 C6             1.9374    -2.6414    -2.9443 C.3     
   7 O7             2.7202    -2.5867    -0.6227 O.3     
   8 C8             1.6136    -0.9535    -4.7560 C.2     
   9 O9             1.0646     0.1273    -4.7189 O.2     
  10 N10            1.4210    -1.7714    -5.8098 N.am    
  11 C11            0.4798    -1.3943    -6.8672 C.3     
  12 C12           -0.9680    -1.3254    -6.4544 C.2     
  13 N13           -1.3337    -1.7039    -5.2137 N.am    
  14 O14           -1.8040    -0.9294    -7.2388 O.2     
  15 S15           -2.9023    -1.5125    -4.7183 S.o2    
  16 C16           -3.8543    -2.6237    -5.7904 C.3     
  17 C17            0.9628    -0.3939    -7.9192 C.3     
  18 C18            0.7872    -1.8689    -8.2889 C.3     
  19 C19           -5.3787    -2.5942    -5.6626 C.3     
  20 C20           -4.7022    -1.9866    -6.8931 C.3     
  21 O21           -2.9070    -1.9869    -3.3788 O.2     
  22 O22           -3.2007    -0.1555    -5.0160 O.2     
  23 C23           -0.0457     0.5846    -8.4638 C.2     
  24 C24            0.1483     1.8723    -8.3217 C.2     
  25 C25            2.6509    -3.8131    -0.0481 C.ar    
  26 C26            3.6391    -4.2422     0.8685 C.ar    
  27 C27            1.6187    -4.6673    -0.3358 C.ar    
  28 C28            1.5698    -5.9292     0.2717 C.ar    
  29 N29            2.5015    -6.3230     1.1236 N.ar    
  30 C30            3.5290    -5.5311     1.4465 C.ar    
  31 C31            0.4509    -6.8408    -0.0466 C.2     
  32 C32            4.5129    -5.9612     2.3526 C.ar    
  33 C33            5.5601    -5.1253     2.6668 C.ar    
  34 C34            5.6555    -3.8530     2.0948 C.ar    
  35 C35            4.7188    -3.4149     1.2099 C.ar    
  36 C36            4.4218    -7.3296     2.9772 C.3     
  37 O37            6.5114    -5.5407     3.5428 O.3     
  38 N38            0.2859    -8.0354     0.4455 N.2     
  39 C39           -0.7697    -8.7040     0.0488 C.2     
  40 C40           -1.5646    -8.0743    -0.8260 C.2     
  41 S41           -0.8778    -6.4831    -1.1468 S.3     
  42 C42           -1.0697   -10.0947     0.5458 C.3     
  43 C43           -2.0344   -10.0158     1.7308 C.3     
  44 C44           -1.7092   -10.9114    -0.5789 C.3     
  45 C45            1.8651    -0.0229    -0.2607 C.3     
  46 C46            3.5557     1.5139    -1.2855 C.3     
  47 C47            3.4041     0.7149    -2.5552 C.2     
  48 C48            3.8527     2.9737    -1.6345 C.3     
  49 C49            2.7013     3.5438    -2.4653 C.3     
  50 C50            4.0031     3.7856    -0.3465 C.3     
  51 O51            4.0442     1.0167    -3.5401 O.2     
  52 C52            7.5732    -4.6280     3.8285 C.3     
  53 C53            8.5399    -5.2669     4.8276 C.3     
  54 N54            9.1852    -6.4321     4.2079 N.3     
  55 C55           10.2880    -6.9297     5.0431 C.3     
  56 C56           10.8922    -8.1764     4.3914 C.3     
  57 O57           11.3198    -7.8551     3.0651 O.3     
  58 C58           10.2707    -7.3679     2.2240 C.3     
  59 C59            9.6603    -6.1130     2.8538 C.3     
  60 H60            1.4668     1.9539    -1.0115 H       
  61 H61            2.4130     1.9165     0.4934 H       
  62 H62            0.7045    -2.6399    -1.1365 H       
  63 H63            0.5496    -0.3838    -1.9464 H       
  64 H64            3.5139    -1.5857    -3.9997 H       
  65 H65            2.6700    -3.4483    -2.9620 H       
  66 H66            1.0177    -2.9531    -3.4394 H       
  67 H67            1.9056    -2.6096    -5.8681 H       
  68 H68           -0.6782    -2.0883    -4.6109 H       
  69 H69           -3.3859    -3.5839    -6.0066 H       
  70 H70            1.9809    -0.0163    -7.8246 H       
  71 H71            1.6899    -2.4615    -8.4376 H       
  72 H72           -0.0576    -2.1311    -8.9258 H       
  73 H73           -5.9131    -3.5349    -5.7952 H       
  74 H74           -5.8095    -1.9071    -4.9344 H       
  75 H75           -4.6880    -0.8997    -6.9744 H       
  76 H76           -4.7917    -2.5275    -7.8352 H       
  77 H77           -0.9284     0.2242    -8.9711 H       
  78 H78           -0.5744     2.5736    -8.7120 H       
  79 H79            1.0310     2.2327    -7.8144 H       
  80 H80            0.8454    -4.3688    -1.0280 H       
  81 H81            6.4849    -3.2120     2.3547 H       
  82 H82            4.8042    -2.4300     0.7751 H       
  83 H83            4.9452    -8.0510     2.3498 H       
  84 H84            4.8794    -7.3088     3.9663 H       
  85 H85            3.3747    -7.6189     3.0674 H       
  86 H86           -2.4716    -8.4714    -1.2574 H       
  87 H87           -0.1439   -10.5750     0.8624 H       
  88 H88           -2.2513   -11.0217     2.0903 H       
  89 H89           -1.5788    -9.4340     2.5321 H       
  90 H90           -2.9602    -9.5355     1.4142 H       
  91 H91           -1.0220   -10.9676    -1.4231 H       
  92 H92           -1.9262   -11.9173    -0.2194 H       
  93 H93           -2.6351   -10.4311    -0.8955 H       
  94 H94            2.6900    -0.5567     0.2112 H       
  95 H95            0.9894    -0.0688     0.3867 H       
  96 H96            4.3780     1.1074    -0.6967 H       
  97 H97            4.7774     3.0290    -2.2090 H       
  98 H98            1.7766     3.4885    -1.8909 H       
  99 H99            2.9129     4.5838    -2.7140 H       
 100 H100           2.5942     2.9654    -3.3829 H       
 101 H101           4.8585     3.4154     0.2186 H       
 102 H102           4.1586     4.8355    -0.5949 H       
 103 H103           3.0994     3.6844     0.2544 H       
 104 H104           8.1063    -4.3910     2.9078 H       
 105 H105           7.1612    -3.7136     4.2555 H       
 106 H106           9.3000    -4.5399     5.1135 H       
 107 H107           7.9897    -5.5846     5.7133 H       
 108 H108          11.0533    -6.1587     5.1327 H       
 109 H109           9.9090    -7.1838     6.0330 H       
 110 H110          11.7465    -8.5155     4.9772 H       
 111 H111          10.1416    -8.9657     4.3507 H       
 112 H112          10.6756    -7.1223     1.2423 H       
 113 H113           9.5021    -8.1337     2.1203 H       
 114 H114           8.8230    -5.7710     2.2455 H       
 115 H115          10.4156    -5.3289     2.9083 H       
@<TRIPOS>BOND
   1    1   45 1
   2    1   46 1
   3    1   60 1
   4    1   61 1
   5    2    3 1
   6    2    7 1
   7    2    6 1
   8    2   62 1
   9    3    4 1
  10    3   45 1
  11    3   63 1
  12    4    5 1
  13    4   47 am
  14    5    6 1
  15    5    8 1
  16    5   64 1
  17    6   65 1
  18    6   66 1
  19    7   25 1
  20    8    9 2
  21    8   10 am
  22   10   11 1
  23   10   67 1
  24   11   12 1
  25   11   17 1
  26   11   18 1
  27   12   13 am
  28   12   14 2
  29   13   15 am
  30   13   68 1
  31   15   16 1
  32   15   21 2
  33   15   22 2
  34   16   19 1
  35   16   20 1
  36   16   69 1
  37   17   18 1
  38   17   23 1
  39   17   70 1
  40   18   71 1
  41   18   72 1
  42   19   20 1
  43   19   73 1
  44   19   74 1
  45   20   75 1
  46   20   76 1
  47   23   24 2
  48   23   77 1
  49   24   78 1
  50   24   79 1
  51   25   26 ar
  52   25   27 ar
  53   26   30 ar
  54   26   35 ar
  55   27   28 ar
  56   27   80 1
  57   28   29 ar
  58   28   31 1
  59   29   30 ar
  60   30   32 ar
  61   31   38 2
  62   31   41 1
  63   32   33 ar
  64   32   36 1
  65   33   34 ar
  66   33   37 1
  67   34   35 ar
  68   34   81 1
  69   35   82 1
  70   36   83 1
  71   36   84 1
  72   36   85 1
  73   37   52 1
  74   38   39 1
  75   39   40 2
  76   39   42 1
  77   40   41 1
  78   40   86 1
  79   42   43 1
  80   42   44 1
  81   42   87 1
  82   43   88 1
  83   43   89 1
  84   43   90 1
  85   44   91 1
  86   44   92 1
  87   44   93 1
  88   45   94 1
  89   45   95 1
  90   46   47 1
  91   46   48 1
  92   46   96 1
  93   47   51 2
  94   48   49 1
  95   48   50 1
  96   48   97 1
  97   49   98 1
  98   49   99 1
  99   49  100 1
 100   50  101 1
 101   50  102 1
 102   50  103 1
 103   52   53 1
 104   52  104 1
 105   52  105 1
 106   53   54 1
 107   53  106 1
 108   53  107 1
 109   54   55 1
 110   54   59 1
 111   55   56 1
 112   55  108 1
 113   55  109 1
 114   56   57 1
 115   56  110 1
 116   56  111 1
 117   57   58 1
 118   58   59 1
 119   58  112 1
 120   58  113 1
 121   59  114 1
 122   59  115 1

#	End of record

