#	Name: ASD01918541
#	Creating user name:	WinNT
#	Creation time:	15. 06. 2019 20:11

#	Modifying user name:	WinNT
#	Modification time:	15. 06. 2019 20:11

#	Program:	/corina/corina34_cracker 3.40 0067  02.08.2006

@<TRIPOS>MOLECULE
ASD01918541
  42   44    0    0    0
SMALL
NO_CHARGES


@<TRIPOS>ATOM
   1 C1            -0.0187     1.5258     0.0104 C.3     
   2 C2             0.0021    -0.0041     0.0020 C.3     
   3 S3             0.8511    -0.5891    -1.4904 S.3     
   4 C4             0.7751    -2.3937    -1.3223 C.3     
   5 C5             1.4346    -3.0224    -2.4784 C.1     
   6 C6             1.9606    -3.5238    -3.4005 C.1     
   7 C7             2.6022    -4.1355    -4.5251 C.ar    
   8 C8             3.1688    -3.3522    -5.5309 C.ar    
   9 N9             3.7590    -3.9146    -6.5654 N.ar    
  10 C10            3.8396    -5.2248    -6.6940 C.ar    
  11 C11            3.3030    -6.0702    -5.7396 C.ar    
  12 C12            2.6765    -5.5291    -4.6308 C.ar    
  13 C13            3.4040    -7.5649    -5.9032 C.3     
  14 H14            2.6489    -8.0671    -5.2984 H       
  15 N15            3.2658    -7.9403    -7.3187 N.am    
  16 C16            4.3920    -8.5464    -7.7186 C.2     
  17 O17            4.5557    -8.9628    -8.8483 O.2     
  18 O18            5.3199    -8.6505    -6.7606 O.3     
  19 C19            4.8147    -8.0566    -5.5257 C.3     
  20 H20            5.4418    -7.2195    -5.2189 H       
  21 C21            4.7388    -9.0903    -4.4317 C.ar    
  22 C22            4.5247   -10.4183    -4.7497 C.ar    
  23 C23            4.4547   -11.3678    -3.7470 C.ar    
  24 C24            4.5988   -10.9899    -2.4257 C.ar    
  25 C25            4.8139    -9.6598    -2.1060 C.ar    
  26 F26            4.9549    -9.2893    -0.8145 F       
  27 C27            4.8889    -8.7108    -3.1111 C.ar    
  28 H28            1.0039     1.9031     0.0027 H       
  29 H29           -0.5459     1.8868    -0.8726 H       
  30 H30           -0.5289     1.8773     0.9072 H       
  31 H31            0.5293    -0.3651     0.8851 H       
  32 H32           -1.0205    -0.3814     0.0098 H       
  33 H33            1.2829    -2.6950    -0.4061 H       
  34 H34           -0.2669    -2.7112    -1.2815 H       
  35 H35            3.1228    -2.2754    -5.4608 H       
  36 H36            4.3322    -5.6444    -7.5587 H       
  37 H37            2.2522    -6.1657    -3.8686 H       
  38 H38            2.4864    -7.7761    -7.8723 H       
  39 H39            4.4115   -10.7145    -5.7821 H       
  40 H40            4.2870   -12.4051    -3.9966 H       
  41 H41            4.5435   -11.7316    -1.6426 H       
  42 H42            5.0607    -7.6738    -2.8632 H       
@<TRIPOS>BOND
   1    1    2 1
   2    1   28 1
   3    1   29 1
   4    1   30 1
   5    2    3 1
   6    2   31 1
   7    2   32 1
   8    3    4 1
   9    4    5 1
  10    4   33 1
  11    4   34 1
  12    5    6 3
  13    6    7 1
  14    7   12 ar
  15    7    8 ar
  16    8    9 ar
  17    8   35 1
  18    9   10 ar
  19   10   11 ar
  20   10   36 1
  21   11   12 ar
  22   11   13 1
  23   12   37 1
  24   13   14 1
  25   13   19 1
  26   13   15 1
  27   15   16 am
  28   15   38 1
  29   16   17 2
  30   16   18 1
  31   18   19 1
  32   19   20 1
  33   19   21 1
  34   21   27 ar
  35   21   22 ar
  36   22   23 ar
  37   22   39 1
  38   23   24 ar
  39   23   40 1
  40   24   25 ar
  41   24   41 1
  42   25   26 1
  43   25   27 ar
  44   27   42 1

#	End of record

