#	Name: ASD01152464
#	Creating user name:	WinNT
#	Creation time:	15. 06. 2019 19:05

#	Modifying user name:	WinNT
#	Modification time:	15. 06. 2019 19:05

#	Program:	/corina/corina34_cracker 3.40 0067  02.08.2006

@<TRIPOS>MOLECULE
ASD01152464
  42   44    0    0    0
SMALL
NO_CHARGES


@<TRIPOS>ATOM
   1 C1             0.0183     1.2183    -0.5219 C.2     
   2 N2            -0.0458    -0.0860    -0.4901 N.2     
   3 N3            -1.1756    -0.7511    -0.0144 N.am    
   4 C4            -2.3336    -0.1186     0.2382 C.2     
   5 C5            -2.4934     1.3440    -0.1039 C.3     
   6 C6            -1.1240     1.9921    -0.0119 C.2     
   7 C7            -3.0456     1.4866    -1.5236 C.3     
   8 O8            -0.9807     3.1031     0.4553 O.2     
   9 C9            -1.1003    -2.1306     0.2079 C.ar    
  10 O10           -3.2547    -0.7246     0.7428 O.2     
  11 C11           -3.3219     2.9625    -1.8175 C.3     
  12 C12           -2.0881    -2.9708    -0.2900 C.ar    
  13 C13           -0.0346    -2.6634     0.9220 C.ar    
  14 C14            0.0370    -4.0253     1.1392 C.ar    
  15 C15           -0.9508    -4.8584     0.6466 C.ar    
  16 C16           -2.0104    -4.3318    -0.0692 C.ar    
  17 C17           -3.8658     3.1030    -3.2159 C.ar    
  18 C18           -5.2291     3.0427    -3.4366 C.ar    
  19 C19           -5.7280     3.1715    -4.7193 C.ar    
  20 C20           -4.8637     3.3610    -5.7813 C.ar    
  21 C21           -3.5005     3.4222    -5.5605 C.ar    
  22 C22           -3.0018     3.2977    -4.2773 C.ar    
  23 O23            1.1193     1.8470    -1.0106 O.3     
  24 C24            2.1849     1.0185    -1.4797 C.3     
  25 H25           -3.1718     1.8172     0.6060 H       
  26 H26           -2.3159     1.1044    -2.2374 H       
  27 H27           -3.9720     0.9190    -1.6119 H       
  28 H28           -4.0516     3.3447    -1.1038 H       
  29 H29           -2.3956     3.5301    -1.7293 H       
  30 H30           -2.9160    -2.5601    -0.8488 H       
  31 H31            0.7373    -2.0133     1.3066 H       
  32 H32            0.8655    -4.4402     1.6940 H       
  33 H33           -0.8925    -5.9232     0.8179 H       
  34 H34           -2.7781    -4.9857    -0.4560 H       
  35 H35           -5.9044     2.8946    -2.6068 H       
  36 H36           -6.7931     3.1237    -4.8918 H       
  37 H37           -5.2535     3.4609    -6.7836 H       
  38 H38           -2.8252     3.5700    -6.3903 H       
  39 H39           -1.9368     3.3456    -4.1048 H       
  40 H40            2.9999     1.6451    -1.8419 H       
  41 H41            2.5438     0.3914    -0.6636 H       
  42 H42            1.8238     0.3870    -2.2914 H       
@<TRIPOS>BOND
   1    1    2 2
   2    1   23 1
   3    1    6 1
   4    2    3 1
   5    3    4 am
   6    3    9 1
   7    4    5 1
   8    4   10 2
   9    5    6 1
  10    5    7 1
  11    5   25 1
  12    6    8 2
  13    7   11 1
  14    7   26 1
  15    7   27 1
  16    9   12 ar
  17    9   13 ar
  18   11   17 1
  19   11   28 1
  20   11   29 1
  21   12   16 ar
  22   12   30 1
  23   13   14 ar
  24   13   31 1
  25   14   15 ar
  26   14   32 1
  27   15   16 ar
  28   15   33 1
  29   16   34 1
  30   17   18 ar
  31   17   22 ar
  32   18   19 ar
  33   18   35 1
  34   19   20 ar
  35   19   36 1
  36   20   21 ar
  37   20   37 1
  38   21   22 ar
  39   21   38 1
  40   22   39 1
  41   23   24 1
  42   24   40 1
  43   24   41 1
  44   24   42 1

#	End of record

