#	Name: ASD01916117
#	Creating user name:	WinNT
#	Creation time:	15. 06. 2019 20:06

#	Modifying user name:	WinNT
#	Modification time:	15. 06. 2019 20:06

#	Program:	/corina/corina34_cracker 3.40 0067  02.08.2006

@<TRIPOS>MOLECULE
ASD01916117
  45   47    0    0    0
SMALL
NO_CHARGES


@<TRIPOS>ATOM
   1 C1             0.0365     1.0965     0.0223 C.ar    
   2 C2            -0.0484    -0.3034    -0.0227 C.ar    
   3 C3            -1.3003    -0.8840    -0.0385 C.ar    
   4 C4            -2.4287    -0.0694    -0.0096 C.ar    
   5 N5            -3.6949    -0.6498    -0.0253 N.am    
   6 C6             1.3120     1.7472     0.0404 C.1     
   7 C7             2.3577     2.2806     0.0552 C.1     
   8 C8             3.6332     2.9313     0.0733 C.ar    
   9 C9             3.7088     4.3261     0.1182 C.ar    
  10 C10            4.9398     4.9467     0.1354 C.ar    
  11 N11           -2.3160     1.2494     0.0332 N.ar    
  12 C12           -1.1417     1.8457     0.0434 C.ar    
  13 C13            4.8076     2.1740     0.0520 C.ar    
  14 C14            6.1009     4.1902     0.1082 C.ar    
  15 N15           -4.8499     0.0583     0.1273 N.3     
  16 C16           -5.9638    -0.7743    -0.3829 C.3     
  17 C17           -5.4056    -2.2053    -0.1914 C.3     
  18 C18           -3.9064    -1.9677    -0.1986 C.2     
  19 C19            6.0326     2.8063     0.0695 C.ar    
  20 O20           -3.0501    -2.8164    -0.3299 O.2     
  21 C21           -7.2296    -0.5648     0.4506 C.3     
  22 C22           -6.2307    -0.4845    -1.8613 C.3     
  23 C23           -5.0641     0.4189     1.5352 C.3     
  24 C24           -3.9633     1.3799     1.9887 C.3     
  25 F25            7.3043     4.8041     0.1248 F       
  26 H26            0.8439    -0.9115    -0.0448 H       
  27 H27           -1.4034    -1.9585    -0.0733 H       
  28 H28            2.8047     4.9166     0.1390 H       
  29 H29            4.9995     6.0245     0.1697 H       
  30 H30           -1.0895     2.9238     0.0790 H       
  31 H31            4.7556     1.0956     0.0221 H       
  32 H32           -5.7312    -2.6246     0.7606 H       
  33 H33           -5.6974    -2.8498    -1.0205 H       
  34 H34            6.9408     2.2222     0.0534 H       
  35 H35           -7.5261     0.4831     0.4040 H       
  36 H36           -8.0322    -1.1874     0.0552 H       
  37 H37           -7.0324    -0.8408     1.4865 H       
  38 H38           -5.3349    -0.7044    -2.4421 H       
  39 H39           -7.0529    -1.1087    -2.2112 H       
  40 H40           -6.4943     0.5660    -1.9839 H       
  41 H41           -6.0352     0.9020     1.6428 H       
  42 H42           -5.0361    -0.4813     2.1491 H       
  43 H43           -3.0087     0.8542     2.0114 H       
  44 H44           -3.9012     2.2159     1.2921 H       
  45 H45           -4.1958     1.7541     2.9857 H       
@<TRIPOS>BOND
   1    1    2 ar
   2    1    6 1
   3    1   12 ar
   4    2    3 ar
   5    2   26 1
   6    3    4 ar
   7    3   27 1
   8    4   11 ar
   9    4    5 1
  10    5   15 1
  11    5   18 am
  12    6    7 3
  13    7    8 1
  14    8    9 ar
  15    8   13 ar
  16    9   10 ar
  17    9   28 1
  18   10   14 ar
  19   10   29 1
  20   11   12 ar
  21   12   30 1
  22   13   19 ar
  23   13   31 1
  24   14   25 1
  25   14   19 ar
  26   15   16 1
  27   15   23 1
  28   16   17 1
  29   16   22 1
  30   16   21 1
  31   17   18 1
  32   17   32 1
  33   17   33 1
  34   18   20 2
  35   19   34 1
  36   21   35 1
  37   21   36 1
  38   21   37 1
  39   22   38 1
  40   22   39 1
  41   22   40 1
  42   23   24 1
  43   23   41 1
  44   23   42 1
  45   24   43 1
  46   24   44 1
  47   24   45 1

#	End of record

