#	Name: ASD03731675
#	Creating user name:	WinNT
#	Creation time:	15. 06. 2019 20:46

#	Modifying user name:	WinNT
#	Modification time:	15. 06. 2019 20:46

#	Program:	/corina/corina34_cracker 3.40 0067  02.08.2006

@<TRIPOS>MOLECULE
ASD03731675
  33   34    0    0    0
SMALL
NO_CHARGES


@<TRIPOS>ATOM
   1 C1            -0.4039     1.1041    -1.9604 C.2     
   2 C2            -0.2824    -0.2739    -1.4501 C.ar    
   3 C3             0.9015    -0.9941    -1.6484 C.ar    
   4 C4             1.0105    -2.2838    -1.1684 C.ar    
   5 C5            -0.0518    -2.8662    -0.4903 C.ar    
   6 C6            -1.2312    -2.1531    -0.2909 C.ar    
   7 C7            -1.3471    -0.8631    -0.7615 C.ar    
   8 O8             0.5251     1.6166    -2.5546 O.2     
   9 N9            -1.5466     1.7938    -1.7731 N.am    
  10 S10           -1.6831     3.3414    -2.3462 S.o2    
  11 O11           -2.9853     3.7486    -1.9491 O.2     
  12 O12           -0.5263     4.0017    -1.8512 O.2     
  13 C13           -1.5932     3.1659    -4.1495 C.3     
  14 F14           -2.2616    -2.7250     0.3697 F       
  15 F15            1.9352    -0.4283    -2.3089 F       
  16 O16            0.0593    -4.1349    -0.0206 O.3     
  17 C17            1.2620    -4.7567    -0.1405 C.ar    
  18 C18            2.2131    -4.6277     0.8614 C.ar    
  19 C19            3.4363    -5.2610     0.7377 C.ar    
  20 C20            3.7113    -6.0243    -0.3873 C.ar    
  21 C21            2.7624    -6.1526    -1.3863 C.ar    
  22 C22            1.5373    -5.5252    -1.2620 C.ar    
  23 F23            4.9064    -6.6425    -0.5081 F       
  24 F24            4.3635    -5.1359     1.7123 F       
  25 H25            1.9233    -2.8405    -1.3208 H       
  26 H26           -2.2608    -0.3096    -0.6027 H       
  27 H27           -2.2891     1.3835    -1.3026 H       
  28 H28           -2.4095     2.5310    -4.4938 H       
  29 H29           -1.6758     4.1482    -4.6147 H       
  30 H30           -0.6403     2.7131    -4.4234 H       
  31 H31            1.9985    -4.0330     1.7370 H       
  32 H32            2.9777    -6.7472    -2.2618 H       
  33 H33            0.7958    -5.6297    -2.0402 H       
@<TRIPOS>BOND
   1    1    2 1
   2    1    8 2
   3    1    9 am
   4    2    3 ar
   5    2    7 ar
   6    3    4 ar
   7    3   15 1
   8    4    5 ar
   9    4   25 1
  10    5    6 ar
  11    5   16 1
  12    6    7 ar
  13    6   14 1
  14    7   26 1
  15    9   10 am
  16    9   27 1
  17   10   11 2
  18   10   12 2
  19   10   13 1
  20   13   28 1
  21   13   29 1
  22   13   30 1
  23   16   17 1
  24   17   18 ar
  25   17   22 ar
  26   18   19 ar
  27   18   31 1
  28   19   20 ar
  29   19   24 1
  30   20   21 ar
  31   20   23 1
  32   21   22 ar
  33   21   32 1
  34   22   33 1

#	End of record

