#	Name: ASD02038530
#	Creating user name:	WinNT
#	Creation time:	15. 06. 2019 20:16

#	Modifying user name:	WinNT
#	Modification time:	15. 06. 2019 20:16

#	Program:	/corina/corina34_cracker 3.40 0067  02.08.2006

@<TRIPOS>MOLECULE
ASD02038530
  59   61    0    0    0
SMALL
NO_CHARGES


@<TRIPOS>ATOM
   1 Cl1            7.7018     3.8564     0.5625 Cl      
   2 C2             0.7948    -0.1804     1.5922 C.3     
   3 N3             0.0510     0.0088     0.3390 N.3     
   4 C4            -1.3145    -0.5211     0.4522 C.3     
   5 C5             0.0355     1.4252    -0.0522 C.3     
   6 C6             1.4732     1.9166    -0.2363 C.3     
   7 N7             2.2171     1.7274     1.0169 N.3     
   8 C8             3.5160     2.2314     0.9092 C.ar    
   9 C9             4.3856     2.1501     1.9892 C.ar    
  10 C10            5.6688     2.6491     1.8800 C.ar    
  11 C11            6.0884     3.2297     0.6960 C.ar    
  12 C12            5.2241     3.3120    -0.3816 C.ar    
  13 C13            3.9417     2.8095    -0.2799 C.ar    
  14 C14            2.2326     0.3109     1.4080 C.3     
  15 C15           -1.2770    -2.0486     0.3732 C.3     
  16 C16           -2.6814    -2.6063     0.6127 C.3     
  17 O17           -2.6264    -4.0336     0.6548 O.3     
  18 C18           -3.7987    -4.6908     0.8615 C.ar    
  19 C19           -3.8167    -6.0768     0.9135 C.ar    
  20 C20           -4.9753    -3.9746     1.0259 C.ar    
  21 C21           -6.1662    -4.6414     1.2363 C.ar    
  22 C22           -6.1857    -6.0288     1.2828 C.ar    
  23 C23           -5.0071    -6.7448     1.1229 C.ar    
  24 O24           -0.8202    -2.4476    -0.9207 O.3     
  25 N25           -7.3939    -6.7061     1.4968 N.am    
  26 C26           -8.5463    -6.1956     1.0195 C.2     
  27 N27           -9.7196    -6.7901     1.3137 N.am    
  28 O28           -8.5275    -5.1988     0.3235 O.2     
  29 C29          -10.9723    -6.2352     0.7949 C.3     
  30 C30          -12.1462    -7.0921     1.2728 C.3     
  31 H31            0.3155     0.3882     2.3890 H       
  32 H32            0.8029    -1.2385     1.8541 H       
  33 H33           -1.7442    -0.2170     1.4066 H       
  34 H34           -1.9246    -0.1300    -0.3621 H       
  35 H35           -0.5101     1.5378    -0.9891 H       
  36 H36           -0.4525     2.0121     0.7260 H       
  37 H37            1.9526     1.3480    -1.0332 H       
  38 H38            1.4652     2.9746    -0.4983 H       
  39 H39            4.0586     1.6975     2.9136 H       
  40 H40            6.3452     2.5865     2.7196 H       
  41 H41            5.5541     3.7659    -1.3043 H       
  42 H42            3.2677     2.8737    -1.1213 H       
  43 H43            2.7782     0.1983     2.3449 H       
  44 H44            2.7206    -0.2759     0.6299 H       
  45 H45           -0.5981    -2.4351     1.1333 H       
  46 H46           -3.0653    -2.2294     1.5607 H       
  47 H47           -3.3402    -2.2918    -0.1968 H       
  48 H48           -2.8996    -6.6337     0.7898 H       
  49 H49           -4.9599    -2.8953     0.9896 H       
  50 H50           -7.0820    -4.0837     1.3650 H       
  51 H51           -5.0216    -7.8241     1.1590 H       
  52 H52           -1.3780    -2.1379    -1.6474 H       
  53 H53           -7.4007    -7.5423     1.9884 H       
  54 H54           -9.7346    -7.5853     1.8690 H       
  55 H55          -11.0956    -5.2149     1.1580 H       
  56 H56          -10.9445    -6.2322    -0.2948 H       
  57 H57          -12.1739    -7.0951     2.3624 H       
  58 H58          -13.0782    -6.6793     0.8868 H       
  59 H59          -12.0228    -8.1124     0.9097 H       
@<TRIPOS>BOND
   1    1   11 1
   2    2    3 1
   3    2   14 1
   4    2   31 1
   5    2   32 1
   6    3    4 1
   7    3    5 1
   8    4   15 1
   9    4   33 1
  10    4   34 1
  11    5    6 1
  12    5   35 1
  13    5   36 1
  14    6    7 1
  15    6   37 1
  16    6   38 1
  17    7    8 1
  18    7   14 1
  19    8    9 ar
  20    8   13 ar
  21    9   10 ar
  22    9   39 1
  23   10   11 ar
  24   10   40 1
  25   11   12 ar
  26   12   13 ar
  27   12   41 1
  28   13   42 1
  29   14   43 1
  30   14   44 1
  31   15   16 1
  32   15   24 1
  33   15   45 1
  34   16   17 1
  35   16   46 1
  36   16   47 1
  37   17   18 1
  38   18   19 ar
  39   18   20 ar
  40   19   23 ar
  41   19   48 1
  42   20   21 ar
  43   20   49 1
  44   21   22 ar
  45   21   50 1
  46   22   23 ar
  47   22   25 1
  48   23   51 1
  49   24   52 1
  50   25   26 am
  51   25   53 1
  52   26   27 am
  53   26   28 2
  54   27   29 1
  55   27   54 1
  56   29   30 1
  57   29   55 1
  58   29   56 1
  59   30   57 1
  60   30   58 1
  61   30   59 1

#	End of record

