#	Name: ASD01100087
#	Creating user name:	WinNT
#	Creation time:	15. 06. 2019 18:58

#	Modifying user name:	WinNT
#	Modification time:	15. 06. 2019 18:58

#	Program:	/corina/corina34_cracker 3.40 0067  02.08.2006

@<TRIPOS>MOLECULE
ASD01100087
  42   44    0    0    0
SMALL
NO_CHARGES


@<TRIPOS>ATOM
   1 C1             1.2273    -2.6860     1.3400 C.3     
   2 C2             0.2579    -1.8180     0.5798 C.2     
   3 N3            -0.0176    -2.0019    -0.6940 N.2     
   4 C4            -0.8700    -1.1879    -1.2375 C.2     
   5 N5            -1.2761    -1.2343    -2.5631 N.pl3   
   6 C6            -0.7657    -2.1966    -3.4065 C.2     
   7 N7            -1.1682    -2.2426    -4.7205 N.pl3   
   8 N8             0.0985    -3.0632    -2.9591 N.2     
   9 S9            -1.4208    -0.0504    -0.0864 S.3     
  10 C10           -0.4053    -0.7905     1.1484 C.2     
  11 C11           -0.2976    -0.3601     2.5582 C.ar    
  12 C12           -0.1207     0.9901     2.8667 C.ar    
  13 C13           -0.0204     1.3894     4.1841 C.ar    
  14 C14           -0.0939     0.4566     5.2014 C.ar    
  15 C15           -0.2698    -0.8902     4.9046 C.ar    
  16 N16           -0.3435    -1.8301     5.9378 N.am    
  17 C17            0.1404    -3.0743     5.7527 C.2     
  18 O18            0.7243    -3.3525     4.7232 O.2     
  19 C19           -0.0386    -4.0997     6.8004 C.ar    
  20 C20           -0.7139    -3.7844     7.9816 C.ar    
  21 C21           -0.8781    -4.7452     8.9561 C.ar    
  22 C22           -0.3743    -6.0228     8.7655 C.ar    
  23 F23           -0.5380    -6.9608     9.7239 F       
  24 C24            0.2966    -6.3414     7.5946 C.ar    
  25 C25            0.4618    -5.3898     6.6112 C.ar    
  26 C26           -0.3779    -1.3007     3.5853 C.ar    
  27 H27            0.6811    -3.4776     1.8530 H       
  28 H28            1.9410    -3.1284     0.6450 H       
  29 H29            1.7610    -2.0796     2.0719 H       
  30 H30           -1.9193    -0.5892    -2.8962 H       
  31 H31           -1.8115    -1.5975    -5.0536 H       
  32 H32           -0.8089    -2.9201    -5.3144 H       
  33 H33            0.4578    -3.7408    -3.5530 H       
  34 H34           -0.0621     1.7219     2.0747 H       
  35 H35            0.1164     2.4342     4.4208 H       
  36 H36           -0.0140     0.7750     6.2303 H       
  37 H37           -0.7429    -1.5865     6.7875 H       
  38 H38           -1.1065    -2.7894     8.1312 H       
  39 H39           -1.3999    -4.5023     9.8700 H       
  40 H40            0.6870    -7.3381     7.4512 H       
  41 H41            0.9806    -5.6403     5.6977 H       
  42 H42           -0.5191    -2.3459     3.3529 H       
@<TRIPOS>BOND
   1    1    2 1
   2    1   27 1
   3    1   28 1
   4    1   29 1
   5    2   10 2
   6    2    3 1
   7    3    4 2
   8    4    5 1
   9    4    9 1
  10    5    6 1
  11    5   30 1
  12    6    7 1
  13    6    8 2
  14    7   31 1
  15    7   32 1
  16    8   33 1
  17    9   10 1
  18   10   11 1
  19   11   26 ar
  20   11   12 ar
  21   12   13 ar
  22   12   34 1
  23   13   14 ar
  24   13   35 1
  25   14   15 ar
  26   14   36 1
  27   15   16 1
  28   15   26 ar
  29   16   17 am
  30   16   37 1
  31   17   18 2
  32   17   19 1
  33   19   25 ar
  34   19   20 ar
  35   20   21 ar
  36   20   38 1
  37   21   22 ar
  38   21   39 1
  39   22   23 1
  40   22   24 ar
  41   24   25 ar
  42   24   40 1
  43   25   41 1
  44   26   42 1

#	End of record

