#	Name: ASD09360001
#	Creating user name:	WinNT
#	Creation time:	15. 06. 2019 21:21

#	Modifying user name:	WinNT
#	Modification time:	15. 06. 2019 21:21

#	Program:	/corina/corina34_cracker 3.40 0067  02.08.2006

@<TRIPOS>MOLECULE
ASD09360001
  99  105    0    0    0
SMALL
NO_CHARGES


@<TRIPOS>ATOM
   1 N1            -0.1176     1.0458     0.1625 N.am    
   2 C2             0.0844    -0.2778     0.0317 C.2     
   3 C3            -1.1998    -0.9614    -0.2247 C.2     
   4 C4            -2.1950    -0.0434    -0.2503 C.2     
   5 C5            -1.5541     1.3011     0.0036 C.3     
   6 C6             0.8650     2.0063     0.4115 C.ar    
   7 C7            -2.1206     1.9168     1.2571 C.ar    
   8 C8            -3.6195    -0.3043    -0.4753 C.2     
   9 O9             1.1641    -0.8297     0.1122 O.2     
  10 O10           -1.3566    -2.2929    -0.4056 O.3     
  11 O11           -4.2583    -0.9400     0.3426 O.2     
  12 C12           -4.2799     0.2042    -1.6948 C.ar    
  13 C13           -3.0095     2.9685     1.1668 C.ar    
  14 C14           -3.5330     3.5365     2.3267 C.ar    
  15 C15           -3.1552     3.0387     3.5718 C.ar    
  16 C16           -2.2652     1.9864     3.6504 C.ar    
  17 C17           -1.7529     1.4230     2.4959 C.ar    
  18 C18            2.1940     1.6209     0.5461 C.ar    
  19 C19            3.1655     2.5674     0.7923 C.ar    
  20 C20            2.8146     3.9119     0.9058 C.ar    
  21 C21            1.4814     4.2962     0.7700 C.ar    
  22 C22            0.5137     3.3472     0.5186 C.ar    
  23 C23           -5.6467    -0.0129    -1.8926 C.ar    
  24 C24           -6.2608     0.4618    -3.0289 C.ar    
  25 C25           -5.5198     1.1596    -3.9837 C.ar    
  26 C26           -4.1552     1.3766    -3.7877 C.ar    
  27 C27           -3.5398     0.9080    -2.6495 C.ar    
  28 C28            3.8583     4.9320     1.1713 C.ar    
  29 C29            3.5089     6.2754     1.2848 C.ar    
  30 C30            4.4882     7.2232     1.5332 C.ar    
  31 C31            5.8135     6.8333     1.6678 C.ar    
  32 C32            6.1609     5.4999     1.5547 C.ar    
  33 C33            5.1909     4.5482     1.3135 C.ar    
  34 O34            4.1513     8.5351     1.6447 O.3     
  35 C35            5.7780    15.6861     2.7279 C.3     
  36 C36           -4.4889     4.6679     2.2359 C.ar    
  37 C37           -4.9270     5.3077     3.3935 C.ar    
  38 C38           -5.8162     6.3594     3.3032 C.ar    
  39 C39           -6.2727     6.7783     2.0665 C.ar    
  40 C40           -5.8411     6.1467     0.9141 C.ar    
  41 C41           -4.9472     5.0980     0.9923 C.ar    
  42 C42           -7.2443     7.9265     1.9744 C.3     
  43 C43           -6.4733     9.2481     1.9727 C.3     
  44 C44           -6.1826     1.6704    -5.2073 C.ar    
  45 C45           -5.4272     2.2705    -6.2139 C.ar    
  46 C46           -6.0498     2.7441    -7.3507 C.ar    
  47 C47           -7.4207     2.6245    -7.4927 C.ar    
  48 C48           -8.1755     2.0304    -6.4971 C.ar    
  49 C49           -7.5632     1.5475    -5.3586 C.ar    
  50 C50            5.2119     9.4578     1.9013 C.3     
  51 C51            4.6436    10.8753     1.9937 C.3     
  52 C52            5.7791    11.8632     2.2684 C.3     
  53 C53            5.2108    13.2807     2.3608 C.3     
  54 C54            6.3464    14.2685     2.6355 C.3     
  55 H55           -1.7198     1.9620    -0.8472 H       
  56 H56           -0.5328    -2.7967    -0.3537 H       
  57 H57           -3.2988     3.3508     0.1990 H       
  58 H58           -3.5575     3.4755     4.4738 H       
  59 H59           -1.9714     1.5999     4.6151 H       
  60 H60           -1.0572     0.5996     2.5620 H       
  61 H61            2.4655     0.5793     0.4581 H       
  62 H62            4.1977     2.2676     0.8976 H       
  63 H63            1.2074     5.3372     0.8579 H       
  64 H64           -0.5192     3.6445     0.4130 H       
  65 H65           -6.2203    -0.5532    -1.1540 H       
  66 H66           -7.3166     0.2939    -3.1821 H       
  67 H67           -3.5828     1.9165    -4.5275 H       
  68 H68           -2.4838     1.0760    -2.4980 H       
  69 H69            2.4774     6.5774     1.1792 H       
  70 H70            6.5756     7.5738     1.8611 H       
  71 H71            7.1937     5.2018     1.6595 H       
  72 H72            5.4655     3.5074     1.2256 H       
  73 H73            5.0509    15.7338     3.5385 H       
  74 H74            6.5870    16.3898     2.9236 H       
  75 H75            5.2912    15.9444     1.7875 H       
  76 H76           -4.5718     4.9810     4.3597 H       
  77 H77           -6.1565     6.8561     4.1999 H       
  78 H78           -6.2007     6.4778    -0.0490 H       
  79 H79           -4.6108     4.6055     0.0919 H       
  80 H80           -7.8212     7.8413     1.0535 H       
  81 H81           -7.9194     7.9008     2.8298 H       
  82 H82           -7.1761    10.0786     1.9061 H       
  83 H83           -5.8964     9.3333     2.8936 H       
  84 H84           -5.7982     9.2738     1.1173 H       
  85 H85           -4.3570     2.3647    -6.1040 H       
  86 H86           -5.4657     3.2094    -8.1309 H       
  87 H87           -7.9036     2.9966    -8.3841 H       
  88 H88           -9.2454     1.9401    -6.6132 H       
  89 H89           -8.1535     1.0839    -4.5820 H       
  90 H90            5.6987     9.1995     2.8417 H       
  91 H91            5.9391     9.4100     1.0907 H       
  92 H92            4.1568    11.1336     1.0533 H       
  93 H93            3.9164    10.9230     2.8043 H       
  94 H94            6.2659    11.6048     3.2088 H       
  95 H95            6.5063    11.8154     1.4578 H       
  96 H96            4.7240    13.5390     1.4204 H       
  97 H97            4.4837    13.3284     3.1714 H       
  98 H98            7.0735    14.2208     1.8249 H       
  99 H99            6.8332    14.0102     3.5759 H       
@<TRIPOS>BOND
   1    1    2 am
   2    1    6 1
   3    1    5 1
   4    2    3 1
   5    2    9 2
   6    3    4 2
   7    3   10 1
   8    4    5 1
   9    4    8 1
  10    5    7 1
  11    5   55 1
  12    6   18 ar
  13    6   22 ar
  14    7   13 ar
  15    7   17 ar
  16    8   11 2
  17    8   12 1
  18   10   56 1
  19   12   23 ar
  20   12   27 ar
  21   13   14 ar
  22   13   57 1
  23   14   15 ar
  24   14   36 1
  25   15   16 ar
  26   15   58 1
  27   16   17 ar
  28   16   59 1
  29   17   60 1
  30   18   19 ar
  31   18   61 1
  32   19   20 ar
  33   19   62 1
  34   20   21 ar
  35   20   28 1
  36   21   22 ar
  37   21   63 1
  38   22   64 1
  39   23   24 ar
  40   23   65 1
  41   24   25 ar
  42   24   66 1
  43   25   26 ar
  44   25   44 1
  45   26   27 ar
  46   26   67 1
  47   27   68 1
  48   28   29 ar
  49   28   33 ar
  50   29   30 ar
  51   29   69 1
  52   30   31 ar
  53   30   34 1
  54   31   32 ar
  55   31   70 1
  56   32   33 ar
  57   32   71 1
  58   33   72 1
  59   34   50 1
  60   35   54 1
  61   35   73 1
  62   35   74 1
  63   35   75 1
  64   36   37 ar
  65   36   41 ar
  66   37   38 ar
  67   37   76 1
  68   38   39 ar
  69   38   77 1
  70   39   40 ar
  71   39   42 1
  72   40   41 ar
  73   40   78 1
  74   41   79 1
  75   42   43 1
  76   42   80 1
  77   42   81 1
  78   43   82 1
  79   43   83 1
  80   43   84 1
  81   44   45 ar
  82   44   49 ar
  83   45   46 ar
  84   45   85 1
  85   46   47 ar
  86   46   86 1
  87   47   48 ar
  88   47   87 1
  89   48   49 ar
  90   48   88 1
  91   49   89 1
  92   50   51 1
  93   50   90 1
  94   50   91 1
  95   51   52 1
  96   51   92 1
  97   51   93 1
  98   52   53 1
  99   52   94 1
 100   52   95 1
 101   53   54 1
 102   53   96 1
 103   53   97 1
 104   54   98 1
 105   54   99 1

#	End of record

