#	Name: ASD05430583
#	Creating user name:	WinNT
#	Creation time:	15. 06. 2019 21:00

#	Modifying user name:	WinNT
#	Modification time:	15. 06. 2019 21:00

#	Program:	/corina/corina34_cracker 3.40 0067  02.08.2006

@<TRIPOS>MOLECULE
ASD05430583
  36   37    0    0    0
SMALL
NO_CHARGES


@<TRIPOS>ATOM
   1 C1             0.0715     1.3870    -0.0554 C.ar    
   2 C2             0.1001    -0.0104    -0.0475 C.ar    
   3 C3             1.2534     2.1065     0.1454 C.ar    
   4 C4             2.4403     1.4428     0.3494 C.ar    
   5 C5             2.4717     0.0551     0.3572 C.ar    
   6 C6             1.3325    -0.6647     0.1644 C.ar    
   7 C7             1.2266     3.6132     0.1376 C.3     
   8 C8             1.3877    -2.1706     0.1769 C.3     
   9 C9             2.1177    -2.6645    -1.0738 C.3     
  10 C10            2.1367    -2.6432     1.4246 C.3     
  11 C11            1.7176     4.1390     1.4879 C.3     
  12 C12            2.1390     4.1338    -0.9748 C.3     
  13 C13           -1.2189    -0.5792    -0.2725 C.2     
  14 C14           -2.1830     0.3041    -0.4397 C.2     
  15 S15           -1.5716     1.9443    -0.3450 S.3     
  16 C16           -1.4651    -2.0655    -0.3120 C.3     
  17 H17            3.3508     2.0029     0.5036 H       
  18 H18            3.4083    -0.4581     0.5178 H       
  19 H19            0.2073     3.9575    -0.0375 H       
  20 H20            0.3741    -2.5713     0.1880 H       
  21 H21            3.1313    -2.2638    -1.0849 H       
  22 H22            2.1576    -3.7538    -1.0648 H       
  23 H23            1.5841    -2.3279    -1.9626 H       
  24 H24            1.6166    -2.2913     2.3155 H       
  25 H25            2.1766    -3.7324     1.4336 H       
  26 H26            3.1503    -2.2425     1.4134 H       
  27 H27            1.6982     5.2288     1.4823 H       
  28 H28            1.0676     3.7681     2.2804 H       
  29 H29            2.7368     3.7946     1.6630 H       
  30 H30            1.7892     3.7592    -1.9368 H       
  31 H31            2.1196     5.2236    -0.9804 H       
  32 H32            3.1582     3.7894    -0.7996 H       
  33 H33           -3.2176     0.0496    -0.6166 H       
  34 H34           -1.5182    -2.4521     0.7057 H       
  35 H35           -2.4056    -2.2644    -0.8259 H       
  36 H36           -0.6495    -2.5548    -0.8445 H       
@<TRIPOS>BOND
   1    1    2 ar
   2    1    3 ar
   3    1   15 1
   4    2   13 1
   5    2    6 ar
   6    3    4 ar
   7    3    7 1
   8    4    5 ar
   9    4   17 1
  10    5    6 ar
  11    5   18 1
  12    6    8 1
  13    7   11 1
  14    7   12 1
  15    7   19 1
  16    8    9 1
  17    8   10 1
  18    8   20 1
  19    9   21 1
  20    9   22 1
  21    9   23 1
  22   10   24 1
  23   10   25 1
  24   10   26 1
  25   11   27 1
  26   11   28 1
  27   11   29 1
  28   12   30 1
  29   12   31 1
  30   12   32 1
  31   13   14 2
  32   13   16 1
  33   14   15 1
  34   14   33 1
  35   16   34 1
  36   16   35 1
  37   16   36 1

#	End of record

