#	Name: ASD03090696
#	Creating user name:	WinNT
#	Creation time:	15. 06. 2019 20:29

#	Modifying user name:	WinNT
#	Modification time:	15. 06. 2019 20:29

#	Program:	/corina/corina34_cracker 3.40 0067  02.08.2006

@<TRIPOS>MOLECULE
ASD03090696
  31   32    0    0    0
SMALL
NO_CHARGES


@<TRIPOS>ATOM
   1 N1            -0.0162     1.3436     0.0094 N.am    
   2 C2            -0.1454     0.0023     0.0362 C.2     
   3 O3             0.8400    -0.7051    -0.0467 O.2     
   4 N4            -1.3668    -0.5549     0.1549 N.am    
   5 S5            -0.2048    -3.0490     0.0761 S.3     
   6 C6            -1.5000    -1.9381     0.1825 C.2     
   7 N7            -2.6244    -2.5738     0.2927 N.2     
   8 C8            -2.5667    -3.8927     0.3021 C.2     
   9 C9            -1.3353    -4.3949     0.1948 C.2     
  10 C10           -3.7925    -4.7607     0.4246 C.3     
  11 F11           -4.9371    -3.9566     0.4050 F       
  12 F12           -3.8360    -5.6600    -0.6461 F       
  13 F13           -3.7423    -5.4712     1.6287 F       
  14 C14            1.2570     1.9239     0.0077 C.ar    
  15 C15            1.4800     3.1081    -0.6811 C.ar    
  16 C16            2.7423     3.6799    -0.6806 C.ar    
  17 C17            3.7803     3.0676     0.0082 C.ar    
  18 C18            3.5566     1.8888     0.6934 C.ar    
  19 C19            2.2980     1.3188     0.6999 C.ar    
  20 C20            0.3515     3.7706    -1.4286 C.3     
  21 O21            2.9640     4.8391    -1.3544 O.3     
  22 H22           -0.8058     1.9065    -0.0127 H       
  23 H23           -2.1530     0.0095     0.2211 H       
  24 H24           -1.0768    -5.4434     0.1822 H       
  25 H25            4.7642     3.5131     0.0083 H       
  26 H26            4.3659     1.4145     1.2285 H       
  27 H27            2.1246     0.3997     1.2399 H       
  28 H28           -0.1640     4.4661    -0.7663 H       
  29 H29            0.7520     4.3133    -2.2848 H       
  30 H30           -0.3498     3.0115    -1.7752 H       
  31 H31            2.8191     5.6354    -0.8253 H       
@<TRIPOS>BOND
   1    1    2 am
   2    1   14 1
   3    1   22 1
   4    2    3 2
   5    2    4 am
   6    4    6 1
   7    4   23 1
   8    5    6 1
   9    5    9 1
  10    6    7 2
  11    7    8 1
  12    8    9 2
  13    8   10 1
  14    9   24 1
  15   10   11 1
  16   10   12 1
  17   10   13 1
  18   14   15 ar
  19   14   19 ar
  20   15   16 ar
  21   15   20 1
  22   16   17 ar
  23   16   21 1
  24   17   18 ar
  25   17   25 1
  26   18   19 ar
  27   18   26 1
  28   19   27 1
  29   20   28 1
  30   20   29 1
  31   20   30 1
  32   21   31 1

#	End of record

