#	Name: ASD01913677
#	Creating user name:	WinNT
#	Creation time:	15. 06. 2019 20:02

#	Modifying user name:	WinNT
#	Modification time:	15. 06. 2019 20:02

#	Program:	/corina/corina34_cracker 3.40 0067  02.08.2006

@<TRIPOS>MOLECULE
ASD01913677
  37   39    0    0    0
SMALL
NO_CHARGES


@<TRIPOS>ATOM
   1 N1            -0.0036     1.2902     0.0121 N.ar    
   2 C2             0.0172    -0.0282    -0.0001 C.ar    
   3 C3             1.2159    -0.7162    -0.0203 C.ar    
   4 C4             2.4044    -0.0026    -0.0278 C.ar    
   5 C5             2.3425     1.3827    -0.0145 C.ar    
   6 C6             1.1071     2.0014     0.0055 C.ar    
   7 C7             3.6066     2.2031    -0.0214 C.3     
   8 O8             3.9909     2.4746    -1.3707 O.3     
   9 C9             5.1157     3.2074    -1.5543 C.ar    
  10 N10            5.7969     3.6321    -0.5011 N.ar    
  11 C11            6.8957     4.3466    -0.6306 C.ar    
  12 C12            7.3785     4.6801    -1.8969 C.ar    
  13 C13            6.6760     4.2429    -3.0296 C.ar    
  14 C14            5.5413     3.4979    -2.8469 C.ar    
  15 C15            8.6094     5.4812    -2.0420 C.2     
  16 N16            9.2762     5.8964    -0.9468 N.am    
  17 O17            9.0219     5.7666    -3.1495 O.2     
  18 C18           10.4941     6.5592    -1.0824 C.ar    
  19 N19           11.0382     6.6927    -2.2820 N.ar    
  20 C20           12.1895     7.3129    -2.4543 C.ar    
  21 C21           12.8732     7.8486    -1.3804 C.ar    
  22 C22           12.3366     7.7300    -0.1057 C.ar    
  23 C23           11.1242     7.0792     0.0424 C.ar    
  24 H24           -0.9131    -0.5767     0.0062 H       
  25 H25            1.2264    -1.7961    -0.0299 H       
  26 H26            3.3558    -0.5133    -0.0432 H       
  27 H27            1.0503     3.0799     0.0160 H       
  28 H28            3.4328     3.1427     0.5030 H       
  29 H29            4.4016     1.6497     0.4785 H       
  30 H30            7.4268     4.6773     0.2497 H       
  31 H31            7.0239     4.4850    -4.0230 H       
  32 H32            4.9777     3.1456    -3.6982 H       
  33 H33            8.9081     5.7338    -0.0642 H       
  34 H34           12.6031     7.4028    -3.4479 H       
  35 H35           13.8156     8.3541    -1.5307 H       
  36 H36           12.8516     8.1398     0.7505 H       
  37 H37           10.6780     6.9690     1.0197 H       
@<TRIPOS>BOND
   1    1    2 ar
   2    1    6 ar
   3    2    3 ar
   4    2   24 1
   5    3    4 ar
   6    3   25 1
   7    4    5 ar
   8    4   26 1
   9    5    6 ar
  10    5    7 1
  11    6   27 1
  12    7    8 1
  13    7   28 1
  14    7   29 1
  15    8    9 1
  16    9   10 ar
  17    9   14 ar
  18   10   11 ar
  19   11   12 ar
  20   11   30 1
  21   12   13 ar
  22   12   15 1
  23   13   14 ar
  24   13   31 1
  25   14   32 1
  26   15   16 am
  27   15   17 2
  28   16   18 1
  29   16   33 1
  30   18   19 ar
  31   18   23 ar
  32   19   20 ar
  33   20   21 ar
  34   20   34 1
  35   21   22 ar
  36   21   35 1
  37   22   23 ar
  38   22   36 1
  39   23   37 1

#	End of record

