#	Name: ASD01885953
#	Creating user name:	WinNT
#	Creation time:	15. 06. 2019 19:50

#	Modifying user name:	WinNT
#	Modification time:	15. 06. 2019 19:50

#	Program:	/corina/corina34_cracker 3.40 0067  02.08.2006

@<TRIPOS>MOLECULE
ASD01885953
  45   48    0    0    0
SMALL
NO_CHARGES


@<TRIPOS>ATOM
   1 C1            -0.0168     1.3878     0.0097 C.ar    
   2 C2             0.0021    -0.0041     0.0020 C.ar    
   3 C3            -1.1600    -0.7180     0.0092 C.ar    
   4 C4            -2.3852    -0.0428     0.0245 C.ar    
   5 C5            -2.4098     1.3727     0.0324 C.ar    
   6 C6            -1.1927     2.0747     0.0302 C.ar    
   7 C7            -3.6574    -0.7653     0.0322 C.ar    
   8 C8            -4.8197    -0.0080     0.0469 C.ar    
   9 C9            -4.7322     1.3857     0.0538 C.ar    
  10 N10           -3.5807     2.0192     0.0467 N.ar    
  11 O11           -5.8771     2.1119     0.0678 O.3     
  12 C12           -3.7026    -2.2455     0.0240 C.ar    
  13 C13           -4.4906    -2.9267     0.9519 C.ar    
  14 C14           -4.5298    -4.3053     0.9400 C.ar    
  15 C15           -3.7875    -5.0138     0.0084 C.ar    
  16 C16           -3.0027    -4.3417    -0.9152 C.ar    
  17 C17           -2.9618    -2.9631    -0.9153 C.ar    
  18 F18           -3.8288    -6.3642     0.0010 F       
  19 C19            1.2850     2.1469     0.0013 C.3     
  20 N20            1.6937     2.4003    -1.3825 N.am    
  21 C21            1.3459     3.4865    -2.0820 C.2     
  22 N22            1.8516     3.4786    -3.3286 N.am    
  23 C23            2.6264     2.2328    -3.4611 C.3     
  24 C24            2.4712     1.5709    -2.1063 C.2     
  25 N25           -6.3679     2.4234     1.4103 N.3     
  26 C26            1.6671     4.5080    -4.3546 C.3     
  27 O27            0.6507     4.3803    -1.6406 O.2     
  28 O28            2.9434     0.5127    -1.7498 O.2     
  29 H29            0.9482    -0.5248    -0.0101 H       
  30 H30           -1.1345    -1.7977     0.0029 H       
  31 H31           -1.1898     3.1547     0.0365 H       
  32 H32           -5.7848    -0.4926     0.0527 H       
  33 H33           -5.0689    -2.3754     1.6787 H       
  34 H34           -5.1396    -4.8335     1.6579 H       
  35 H35           -2.4255    -4.8982    -1.6387 H       
  36 H36           -2.3499    -2.4402    -1.6354 H       
  37 H37            1.1556     3.0960     0.5215 H       
  38 H38            2.0520     1.5583     0.5047 H       
  39 H39            2.2101     1.6042    -4.2483 H       
  40 H40            3.6754     2.4528    -3.6591 H       
  41 H41           -5.6629     2.9016     1.9511 H       
  42 H42           -7.2192     2.9634     1.3679 H       
  43 H43            1.0434     5.3090    -3.9576 H       
  44 H44            2.6376     4.9119    -4.6426 H       
  45 H45            1.1829     4.0689    -5.2268 H       
@<TRIPOS>BOND
   1    1    2 ar
   2    1   19 1
   3    1    6 ar
   4    2    3 ar
   5    2   29 1
   6    3    4 ar
   7    3   30 1
   8    4    5 ar
   9    4    7 ar
  10    5    6 ar
  11    5   10 ar
  12    6   31 1
  13    7    8 ar
  14    7   12 1
  15    8    9 ar
  16    8   32 1
  17    9   10 ar
  18    9   11 1
  19   11   25 1
  20   12   13 ar
  21   12   17 ar
  22   13   14 ar
  23   13   33 1
  24   14   15 ar
  25   14   34 1
  26   15   16 ar
  27   15   18 1
  28   16   17 ar
  29   16   35 1
  30   17   36 1
  31   19   20 1
  32   19   37 1
  33   19   38 1
  34   20   21 am
  35   20   24 am
  36   21   22 am
  37   21   27 2
  38   22   23 1
  39   22   26 1
  40   23   24 1
  41   23   39 1
  42   23   40 1
  43   24   28 2
  44   25   41 1
  45   25   42 1
  46   26   43 1
  47   26   44 1
  48   26   45 1

#	End of record

