#	Name: ASD01885354
#	Creating user name:	WinNT
#	Creation time:	15. 06. 2019 19:49

#	Modifying user name:	WinNT
#	Modification time:	15. 06. 2019 19:49

#	Program:	/corina/corina34_cracker 3.40 0067  02.08.2006

@<TRIPOS>MOLECULE
ASD01885354
  49   52    0    0    0
SMALL
NO_CHARGES


@<TRIPOS>ATOM
   1 C1            -0.0164     1.3569     0.0095 C.ar    
   2 C2             0.0021    -0.0041     0.0020 C.ar    
   3 C3             1.2044    -0.7071    -0.0128 C.ar    
   4 C4             2.3989    -0.0488    -0.0202 C.ar    
   5 C5             2.4171     1.3494    -0.0133 C.ar    
   6 C6             1.1964     2.0710     0.0018 C.ar    
   7 C7             3.6743     2.0989    -0.0213 C.ar    
   8 C8             3.5883     3.4898    -0.0139 C.ar    
   9 C9             2.3310     4.0989     0.0004 C.ar    
  10 N10            1.2102     3.4041     0.0083 N.ar    
  11 C11            4.9771     1.4111    -0.0359 C.2     
  12 C12            2.2541     5.5797     0.0086 C.2     
  13 O13            3.2734     6.2410     0.0028 O.2     
  14 N14            1.0536     6.1921     0.0225 N.am    
  15 C15           -1.2999    -0.7629     0.0104 C.3     
  16 N16           -1.7362    -1.0020    -1.3718 N.3     
  17 C17           -2.8694    -1.9377    -1.4122 C.3     
  18 C18           -3.3291    -2.1117    -2.8621 C.3     
  19 O19           -2.2274    -2.5610    -3.6556 O.3     
  20 C20           -1.1064    -1.6731    -3.6396 C.3     
  21 C21           -0.6241    -1.4947    -2.1976 C.3     
  22 C22            6.0153     1.6569    -0.8811 C.2     
  23 N23            7.0058     0.8150    -0.5573 N.2     
  24 C24            6.6195     0.0710     0.4423 C.2     
  25 O25            5.3741     0.4182     0.7913 O.3     
  26 C26            7.4451    -1.0028     1.1029 C.3     
  27 C27           -4.4557    -3.1453    -2.9203 C.3     
  28 F28           -5.5311    -2.7074    -2.1399 F       
  29 F29           -4.8752    -3.3037    -4.2455 F       
  30 F30           -3.9910    -4.3699    -2.4287 F       
  31 H31           -0.9576     1.8865     0.0169 H       
  32 H32            1.1906    -1.7870    -0.0181 H       
  33 H33            3.3252    -0.6042    -0.0309 H       
  34 H34            4.4853     4.0913    -0.0190 H       
  35 H35            0.2399     5.6642     0.0271 H       
  36 H36            1.0033     7.1608     0.0278 H       
  37 H37           -1.1609    -1.7175     0.5178 H       
  38 H38           -2.0570    -0.1796     0.5346 H       
  39 H39           -2.5593    -2.9023    -1.0104 H       
  40 H40           -3.6905    -1.5410    -0.8152 H       
  41 H41           -3.6894    -1.1576    -3.2467 H       
  42 H42           -0.3014    -2.0922    -4.2433 H       
  43 H43           -1.4020    -0.7062    -4.0468 H       
  44 H44            0.1938    -0.7745    -2.1738 H       
  45 H45           -0.2782    -2.4522    -1.8083 H       
  46 H46            6.0366     2.3953    -1.6689 H       
  47 H47            8.0173    -0.5685     1.9227 H       
  48 H48            6.7869    -1.7801     1.4910 H       
  49 H49            8.1284    -1.4366     0.3727 H       
@<TRIPOS>BOND
   1    1    2 ar
   2    1    6 ar
   3    1   31 1
   4    2    3 ar
   5    2   15 1
   6    3    4 ar
   7    3   32 1
   8    4    5 ar
   9    4   33 1
  10    5    7 ar
  11    5    6 ar
  12    6   10 ar
  13    7    8 ar
  14    7   11 1
  15    8    9 ar
  16    8   34 1
  17    9   10 ar
  18    9   12 1
  19   11   22 2
  20   11   25 1
  21   12   13 2
  22   12   14 am
  23   14   35 1
  24   14   36 1
  25   15   16 1
  26   15   37 1
  27   15   38 1
  28   16   17 1
  29   16   21 1
  30   17   18 1
  31   17   39 1
  32   17   40 1
  33   18   19 1
  34   18   27 1
  35   18   41 1
  36   19   20 1
  37   20   21 1
  38   20   42 1
  39   20   43 1
  40   21   44 1
  41   21   45 1
  42   22   23 1
  43   22   46 1
  44   23   24 2
  45   24   25 1
  46   24   26 1
  47   26   47 1
  48   26   48 1
  49   26   49 1
  50   27   28 1
  51   27   29 1
  52   27   30 1

#	End of record

