#	Name: ASD03240993
#	Creating user name:	WinNT
#	Creation time:	15. 06. 2019 20:35

#	Modifying user name:	WinNT
#	Modification time:	15. 06. 2019 20:35

#	Program:	/corina/corina34_cracker 3.40 0067  02.08.2006

@<TRIPOS>MOLECULE
ASD03240993
  67   73    0    0    0
SMALL
NO_CHARGES


@<TRIPOS>ATOM
   1 C1            -0.0188     1.5336     0.0105 C.3     
   2 C2             0.0021    -0.0041     0.0020 C.3     
   3 C3             1.3815     0.0967    -0.6702 C.3     
   4 C4             1.5179     1.4762    -0.0045 C.3     
   5 O5            -0.5818     2.1049    -1.1721 O.3     
   6 C6             2.3746    -0.9181    -0.1653 C.ar    
   7 C7             3.3681    -1.3872    -1.0061 C.ar    
   8 C8             4.2804    -2.3163    -0.5496 C.ar    
   9 C9             4.1994    -2.7826     0.7625 C.ar    
  10 C10            3.1955    -2.3058     1.6053 C.ar    
  11 C11            2.2926    -1.3725     1.1389 C.ar    
  12 N12            6.9621    -6.5926    -0.0529 N.pl3   
  13 C13            7.8643    -7.5254     0.3854 C.2     
  14 N14            8.3129    -7.5242     1.6525 N.2     
  15 C15            7.9132    -6.6373     2.5270 C.2     
  16 C16            6.9820    -5.6433     2.1452 C.ar    
  17 C17            6.5271    -4.6692     3.0594 C.ar    
  18 C18            5.6022    -3.7207     2.5973 C.ar    
  19 C19            5.1751    -3.7802     1.2585 C.ar    
  20 N20            5.6285    -4.7118     0.4328 N.ar    
  21 C21            6.4996    -5.6275     0.8209 C.ar    
  22 C22            8.1423    -8.3512    -0.6940 C.2     
  23 C23            7.3963    -7.8986    -1.7754 C.2     
  24 N24            6.6902    -6.8589    -1.3991 N.2     
  25 C25            7.7670    -3.5801     4.9337 C.ar    
  26 C26            7.0075    -4.6502     4.4587 C.ar    
  27 C27            6.7076    -5.7048     5.3283 C.ar    
  28 C28            7.1803    -5.6386     6.6274 C.ar    
  29 C29            7.9269    -4.5429     7.0210 C.ar    
  30 N30            8.1943    -3.5629     6.1791 N.ar    
  31 C31            5.0844    -2.6717     3.5053 C.ar    
  32 C32            5.3764    -1.3294     3.2631 C.ar    
  33 C33            4.8910    -0.3566     4.1128 C.ar    
  34 C34            4.1162    -0.7102     5.2030 C.ar    
  35 C35            3.8235    -2.0399     5.4487 C.ar    
  36 C36            4.2979    -3.0214     4.6028 C.ar    
  37 C37            7.3943    -8.5065    -3.1543 C.3     
  38 C38           -0.5973     2.1316     1.2944 C.3     
  39 N39            1.3186     0.1546    -2.1367 N.3     
  40 H40            0.0329    -0.4458     0.9980 H       
  41 H41           -0.7629    -0.4476    -0.6353 H       
  42 H42            1.9766     2.2276    -0.6471 H       
  43 H43            1.9632     1.4391     0.9897 H       
  44 H44           -0.5977     3.0718    -1.1727 H       
  45 H45            3.4296    -1.0257    -2.0219 H       
  46 H46            5.0553    -2.6821    -1.2070 H       
  47 H47            3.1277    -2.6632     2.6223 H       
  48 H48            1.5175    -0.9993     1.7918 H       
  49 H49            8.2927    -6.6642     3.5377 H       
  50 H50            8.8176    -9.1941    -0.6940 H       
  51 H51            8.0102    -2.7612     4.2728 H       
  52 H52            6.1219    -6.5485     4.9944 H       
  53 H53            6.9682    -6.4340     7.3265 H       
  54 H54            8.2971    -4.4886     8.0342 H       
  55 H55            5.9814    -1.0522     2.4126 H       
  56 H56            5.1168     0.6830     3.9266 H       
  57 H57            3.7386     0.0548     5.8652 H       
  58 H58            3.2188    -2.3098     6.3018 H       
  59 H59            4.0644    -4.0586     4.7927 H       
  60 H60            6.6207    -9.2722    -3.2126 H       
  61 H61            7.1939    -7.7306    -3.8932 H       
  62 H62            8.3667    -8.9564    -3.3545 H       
  63 H63            0.0010     1.8098     2.1469 H       
  64 H64           -0.5800     3.2195     1.2285 H       
  65 H65           -1.6249     1.7917     1.4227 H       
  66 H66            2.2430     0.2199    -2.5360 H       
  67 H67            0.8193    -0.6393    -2.5089 H       
@<TRIPOS>BOND
   1    1    2 1
   2    1    4 1
   3    1    5 1
   4    1   38 1
   5    2    3 1
   6    2   40 1
   7    2   41 1
   8    3    4 1
   9    3    6 1
  10    3   39 1
  11    4   42 1
  12    4   43 1
  13    5   44 1
  14    6    7 ar
  15    6   11 ar
  16    7    8 ar
  17    7   45 1
  18    8    9 ar
  19    8   46 1
  20    9   10 ar
  21    9   19 1
  22   10   11 ar
  23   10   47 1
  24   11   48 1
  25   12   13 1
  26   12   21 1
  27   12   24 1
  28   13   14 1
  29   13   22 2
  30   14   15 2
  31   15   16 1
  32   15   49 1
  33   16   17 ar
  34   16   21 ar
  35   17   18 ar
  36   17   26 1
  37   18   19 ar
  38   18   31 1
  39   19   20 ar
  40   20   21 ar
  41   22   23 1
  42   22   50 1
  43   23   24 2
  44   23   37 1
  45   25   26 ar
  46   25   30 ar
  47   25   51 1
  48   26   27 ar
  49   27   28 ar
  50   27   52 1
  51   28   29 ar
  52   28   53 1
  53   29   30 ar
  54   29   54 1
  55   31   32 ar
  56   31   36 ar
  57   32   33 ar
  58   32   55 1
  59   33   34 ar
  60   33   56 1
  61   34   35 ar
  62   34   57 1
  63   35   36 ar
  64   35   58 1
  65   36   59 1
  66   37   60 1
  67   37   61 1
  68   37   62 1
  69   38   63 1
  70   38   64 1
  71   38   65 1
  72   39   66 1
  73   39   67 1

#	End of record

