#	Name: ASD02038765
#	Creating user name:	WinNT
#	Creation time:	15. 06. 2019 20:17

#	Modifying user name:	WinNT
#	Modification time:	15. 06. 2019 20:17

#	Program:	/corina/corina34_cracker 3.40 0067  02.08.2006

@<TRIPOS>MOLECULE
ASD02038765
  46   48    0    0    0
SMALL
NO_CHARGES


@<TRIPOS>ATOM
   1 C1            -1.2778    -0.8484     0.4647 C.2     
   2 C2            -0.0608    -0.0344     0.3013 C.2     
   3 N3             1.1367    -0.6350     0.1536 N.am    
   4 C4             1.2420    -2.0929     0.2510 C.3     
   5 C5             1.2144    -2.6920    -1.1315 C.ar    
   6 C6             2.3331     0.1702    -0.1042 C.3     
   7 O7            -0.1367     1.1794     0.2996 O.2     
   8 N8            -1.3382    -2.2042     0.4961 N.2     
   9 C9            -2.5784    -2.5668     0.6543 C.2     
  10 N10           -3.3576    -1.4566     0.7301 N.pl3   
  11 C11           -2.5487    -0.3768     0.6179 C.2     
  12 C12            2.3985    -3.0141    -1.7687 C.ar    
  13 C13            0.0051    -2.9244    -1.7594 C.ar    
  14 C14           -0.0216    -3.4742    -3.0272 C.ar    
  15 C15            1.1636    -3.7922    -3.6683 C.ar    
  16 C16            2.3743    -3.5638    -3.0361 C.ar    
  17 C17            2.1208     1.0143    -1.3647 C.3     
  18 C18            3.3435     1.9097    -1.5817 C.3     
  19 O19            3.5435     2.7285    -0.4278 O.3     
  20 C20            3.7940     1.9943     0.7724 C.3     
  21 C21            2.5894     1.1023     1.0840 C.3     
  22 C22            3.6653    -3.9089    -3.7328 C.3     
  23 C23           -4.8116    -1.4321     0.9076 C.3     
  24 F24            1.1388    -4.3297    -4.9075 F       
  25 F25            4.7439    -3.5900    -2.9008 F       
  26 F26            3.6879    -5.2776    -4.0216 F       
  27 F27            3.7626    -3.1795    -4.9226 F       
  28 H28            2.1780    -2.3576     0.7430 H       
  29 H29            0.4044    -2.4797     0.8314 H       
  30 H30            3.1913    -0.4868    -0.2457 H       
  31 H31           -2.9310    -3.5858     0.7152 H       
  32 H32           -2.8524     0.6594     0.6384 H       
  33 H33            3.3426    -2.8355    -1.2756 H       
  34 H34           -0.9194    -2.6766    -1.2590 H       
  35 H35           -0.9665    -3.6560    -3.5175 H       
  36 H36            1.9927     0.3579    -2.2254 H       
  37 H37            1.2325     1.6341    -1.2427 H       
  38 H38            4.2245     1.2888    -1.7440 H       
  39 H39            3.1798     2.5436    -2.4532 H       
  40 H40            4.6809     1.3745     0.6409 H       
  41 H41            3.9547     2.6891     1.5967 H       
  42 H42            1.7105     1.7239     1.2555 H       
  43 H43            2.7963     0.5088     1.9745 H       
  44 H44           -5.0473    -1.4075     1.9715 H       
  45 H45           -5.2218    -0.5456     0.4240 H       
  46 H46           -5.2474    -2.3250     0.4594 H       
@<TRIPOS>BOND
   1    1    2 1
   2    1    8 1
   3    1   11 2
   4    2    3 am
   5    2    7 2
   6    3    4 1
   7    3    6 1
   8    4    5 1
   9    4   28 1
  10    4   29 1
  11    5   12 ar
  12    5   13 ar
  13    6   17 1
  14    6   21 1
  15    6   30 1
  16    8    9 2
  17    9   10 1
  18    9   31 1
  19   10   11 1
  20   10   23 1
  21   11   32 1
  22   12   16 ar
  23   12   33 1
  24   13   14 ar
  25   13   34 1
  26   14   15 ar
  27   14   35 1
  28   15   16 ar
  29   15   24 1
  30   16   22 1
  31   17   18 1
  32   17   36 1
  33   17   37 1
  34   18   19 1
  35   18   38 1
  36   18   39 1
  37   19   20 1
  38   20   21 1
  39   20   40 1
  40   20   41 1
  41   21   42 1
  42   21   43 1
  43   22   25 1
  44   22   26 1
  45   22   27 1
  46   23   44 1
  47   23   45 1
  48   23   46 1

#	End of record

