#	Name: ASD02198816
#	Creating user name:	WinNT
#	Creation time:	15. 06. 2019 20:20

#	Modifying user name:	WinNT
#	Modification time:	15. 06. 2019 20:20

#	Program:	/corina/corina34_cracker 3.40 0067  02.08.2006

@<TRIPOS>MOLECULE
ASD02198816
  52   56    0    0    0
SMALL
NO_CHARGES


@<TRIPOS>ATOM
   1 C1            -0.0163     1.3526     0.0095 C.2     
   2 C2             0.0021    -0.0041     0.0020 C.2     
   3 N3             1.1721    -0.6813    -0.0123 N.pl3   
   4 N4             2.3180    -0.1068    -0.0202 N.2     
   5 C5             2.4432     1.2032    -0.0147 C.2     
   6 C6             1.2263     2.0305     0.0013 C.2     
   7 C7             1.1302    -2.0795    -0.0185 C.ar    
   8 C8             1.8107    -2.8025     0.9604 C.ar    
   9 C9             1.7667    -4.1866     0.9517 C.ar    
  10 C10            1.0457    -4.8508    -0.0309 C.ar    
  11 C11            0.3687    -4.1284    -1.0058 C.ar    
  12 C12            0.4059    -2.7489    -0.9964 C.ar    
  13 C13            3.7799     1.8313    -0.0236 C.2     
  14 N14            4.5050     2.1821    -1.1276 N.pl3   
  15 N15            5.7095     2.7439    -0.6862 N.2     
  16 C16            5.7220     2.7378     0.6229 C.2     
  17 C17            4.5282     2.1793     1.0796 C.2     
  18 C18            4.1139     2.0099    -2.4615 C.ar    
  19 C19            4.4735     2.9494    -3.4189 C.ar    
  20 C20            4.0868     2.7765    -4.7334 C.ar    
  21 C21            3.3421     1.6693    -5.0967 C.ar    
  22 C22            2.9820     0.7322    -4.1456 C.ar    
  23 C23            3.3706     0.8965    -2.8305 C.ar    
  24 O24            1.2860     3.2511     0.0065 O.2     
  25 N25            1.0010    -6.2517    -0.0401 N.pl3   
  26 N26            1.6325    -7.1027     0.8761 N.2     
  27 C27            1.3593    -8.3384     0.5423 C.2     
  28 C28            0.5459    -8.3150    -0.5959 C.2     
  29 C29            0.3358    -7.0209    -0.9313 C.2     
  30 C30            4.1323     1.9831     2.5204 C.3     
  31 O31            2.5164    -2.1500     1.9213 O.3     
  32 C32            3.1887    -2.9550     2.8919 C.3     
  33 H33           -0.9487     1.8976     0.0169 H       
  34 H34           -0.9298    -0.5499     0.0080 H       
  35 H35            2.2933    -4.7488     1.7086 H       
  36 H36           -0.1914    -4.6474    -1.7696 H       
  37 H37           -0.1215    -2.1897    -1.7550 H       
  38 H38            6.5227     3.1076     1.2463 H       
  39 H39            5.0548     3.8145    -3.1357 H       
  40 H40            4.3658     3.5069    -5.4784 H       
  41 H41            3.0409     1.5363    -6.1252 H       
  42 H42            2.4002    -0.1313    -4.4323 H       
  43 H43            3.0893     0.1641    -2.0882 H       
  44 H44            1.7026    -9.2237     1.0568 H       
  45 H45            0.1522    -9.1774    -1.1133 H       
  46 H46           -0.2522    -6.6663    -1.7650 H       
  47 H47            3.6043     2.8680     2.8758 H       
  48 H48            3.4804     1.1134     2.6028 H       
  49 H49            5.0258     1.8260     3.1246 H       
  50 H50            3.9069    -3.6041     2.3910 H       
  51 H51            3.7121    -2.3109     3.5985 H       
  52 H52            2.4598    -3.5640     3.4265 H       
@<TRIPOS>BOND
   1    1    2 2
   2    1    6 1
   3    1   33 1
   4    2    3 1
   5    2   34 1
   6    3    4 1
   7    3    7 1
   8    4    5 2
   9    5    6 1
  10    5   13 1
  11    6   24 2
  12    7    8 ar
  13    7   12 ar
  14    8    9 ar
  15    8   31 1
  16    9   10 ar
  17    9   35 1
  18   10   11 ar
  19   10   25 1
  20   11   12 ar
  21   11   36 1
  22   12   37 1
  23   13   14 1
  24   13   17 2
  25   14   15 1
  26   14   18 1
  27   15   16 2
  28   16   17 1
  29   16   38 1
  30   17   30 1
  31   18   19 ar
  32   18   23 ar
  33   19   20 ar
  34   19   39 1
  35   20   21 ar
  36   20   40 1
  37   21   22 ar
  38   21   41 1
  39   22   23 ar
  40   22   42 1
  41   23   43 1
  42   25   26 1
  43   25   29 1
  44   26   27 2
  45   27   28 1
  46   27   44 1
  47   28   29 2
  48   28   45 1
  49   29   46 1
  50   30   47 1
  51   30   48 1
  52   30   49 1
  53   31   32 1
  54   32   50 1
  55   32   51 1
  56   32   52 1

#	End of record

