#	Name: ASD07300420
#	Creating user name:	WinNT
#	Creation time:	15. 06. 2019 21:09

#	Modifying user name:	WinNT
#	Modification time:	15. 06. 2019 21:09

#	Program:	/corina/corina34_cracker 3.40 0067  02.08.2006

@<TRIPOS>MOLECULE
ASD07300420
  40   43    0    0    0
SMALL
NO_CHARGES


@<TRIPOS>ATOM
   1 C1            -0.0169     1.3941     0.0097 C.ar    
   2 C2             0.0021    -0.0041     0.0020 C.ar    
   3 C3             1.2199    -0.6674    -0.0128 C.ar    
   4 C4             2.3808     0.0923    -0.0194 C.ar    
   5 C5             2.2878     1.4713    -0.0111 C.ar    
   6 N6             1.1161     2.0768     0.0026 N.ar    
   7 C7            -2.1138     0.6623     0.0347 C.2     
   8 N8            -1.3542     1.7734     0.0301 N.am    
   9 N9            -1.3234    -0.4279     0.0124 N.am    
  10 O10           -3.3304     0.6454     0.0519 O.2     
  11 C11           -1.7801    -1.8199     0.0088 C.3     
  12 C12           -2.6123    -2.0869     1.2647 C.3     
  13 C13           -2.6364    -2.0726    -1.2337 C.3     
  14 N14           -3.4554     6.9321     0.0894 N.pl3   
  15 C15           -4.9036     6.7100     0.1077 C.3     
  16 C16           -5.0773     5.1825     0.1008 C.3     
  17 C17           -3.6662     4.6391     0.0784 C.ar    
  18 C18           -3.1972     3.3398     0.0641 C.ar    
  19 C19           -1.8318     3.0929     0.0441 C.ar    
  20 C20           -0.9404     4.1574     0.0384 C.ar    
  21 C21           -1.4092     5.4529     0.0526 C.ar    
  22 C22           -2.7825     5.7067     0.0728 C.ar    
  23 H23            1.2635    -1.7465    -0.0186 H       
  24 H24            3.3476    -0.3890    -0.0305 H       
  25 H25            3.1908     2.0638    -0.0159 H       
  26 H26           -0.9169    -2.4854    -0.0033 H       
  27 H27           -2.9521    -3.1225     1.2620 H       
  28 H28           -2.0022    -1.9068     2.1498 H       
  29 H29           -3.4755    -1.4213     1.2768 H       
  30 H30           -2.0435    -1.8824    -2.1283 H       
  31 H31           -2.9762    -3.1083    -1.2363 H       
  32 H32           -3.4996    -1.4071    -1.2215 H       
  33 H33           -3.0264     7.8021     0.0851 H       
  34 H34           -5.3401     7.1361     1.0110 H       
  35 H35           -5.3644     7.1469    -0.7782 H       
  36 H36           -5.5966     4.8548     1.0014 H       
  37 H37           -5.6209     4.8656    -0.7892 H       
  38 H38           -3.8943     2.5149     0.0690 H       
  39 H39            0.1230     3.9694     0.0232 H       
  40 H40           -0.7109     6.2767     0.0481 H       
@<TRIPOS>BOND
   1    1    2 ar
   2    1    6 ar
   3    1    8 1
   4    2    3 ar
   5    2    9 1
   6    3    4 ar
   7    3   23 1
   8    4    5 ar
   9    4   24 1
  10    5    6 ar
  11    5   25 1
  12    7    8 am
  13    7    9 am
  14    7   10 2
  15    8   19 1
  16    9   11 1
  17   11   12 1
  18   11   13 1
  19   11   26 1
  20   12   27 1
  21   12   28 1
  22   12   29 1
  23   13   30 1
  24   13   31 1
  25   13   32 1
  26   14   15 1
  27   14   22 1
  28   14   33 1
  29   15   16 1
  30   15   34 1
  31   15   35 1
  32   16   17 1
  33   16   36 1
  34   16   37 1
  35   17   18 ar
  36   17   22 ar
  37   18   19 ar
  38   18   38 1
  39   19   20 ar
  40   20   21 ar
  41   20   39 1
  42   21   22 ar
  43   21   40 1

#	End of record

