#	Name: ASD01940242
#	Creating user name:	WinNT
#	Creation time:	15. 06. 2019 20:12

#	Modifying user name:	WinNT
#	Modification time:	15. 06. 2019 20:12

#	Program:	/corina/corina34_cracker 3.40 0067  02.08.2006

@<TRIPOS>MOLECULE
ASD01940242
  32   33    0    0    0
SMALL
NO_CHARGES


@<TRIPOS>ATOM
   1 F1             1.9040     1.5956     2.2851 F       
   2 C2             1.0649     2.1489     1.3823 C.ar    
   3 C3             1.3888     2.1337     0.0321 C.ar    
   4 C4             0.5198     2.7058    -0.8956 C.ar    
   5 C5            -0.6637     3.2874    -0.4663 C.ar    
   6 C6            -0.9808     3.3000     0.8795 C.ar    
   7 C7            -0.1224     2.7270     1.8023 C.ar    
   8 N8             2.5864     1.5450    -0.3967 N.pl3   
   9 N9             0.8418     2.6937    -2.2594 N.am    
  10 C10            2.6328     0.1744    -0.6713 C.ar    
  11 C11            1.4777    -0.5911    -0.5887 C.ar    
  12 C12            1.5264    -1.9451    -0.8604 C.ar    
  13 C13            2.7243    -2.5390    -1.2146 C.ar    
  14 C14            3.8786    -1.7798    -1.2983 C.ar    
  15 C15            3.8358    -0.4238    -1.0334 C.ar    
  16 F16            4.9624     0.3174    -1.1150 F       
  17 F17           -0.4400     2.7367     3.1154 F       
  18 S18            0.4249     3.9766    -3.2200 S.o2    
  19 O19            0.9894     3.6644    -4.4861 O.2     
  20 O20           -0.9813     4.0962    -3.0542 O.2     
  21 Br21           2.7853    -4.3924    -1.5848 Br      
  22 C22            1.2765     5.3949    -2.4757 C.3     
  23 F23            0.9930     6.5490    -3.2138 F       
  24 H24           -1.3381     3.7312    -1.1837 H       
  25 H25           -1.9028     3.7542     1.2113 H       
  26 H26            3.3829     2.0882    -0.5031 H       
  27 H27            1.3088     1.9339    -2.6408 H       
  28 H28            0.5418    -0.1288    -0.3119 H       
  29 H29            0.6278    -2.5406    -0.7958 H       
  30 H30            4.8126    -2.2464    -1.5748 H       
  31 H31            0.9339     5.5267    -1.4493 H       
  32 H32            2.3517     5.2161    -2.4796 H       
@<TRIPOS>BOND
   1    1    2 1
   2    2    3 ar
   3    2    7 ar
   4    3    4 ar
   5    3    8 1
   6    4    5 ar
   7    4    9 1
   8    5    6 ar
   9    5   24 1
  10    6    7 ar
  11    6   25 1
  12    7   17 1
  13    8   10 1
  14    8   26 1
  15    9   18 am
  16    9   27 1
  17   10   11 ar
  18   10   15 ar
  19   11   12 ar
  20   11   28 1
  21   12   13 ar
  22   12   29 1
  23   13   14 ar
  24   13   21 1
  25   14   15 ar
  26   14   30 1
  27   15   16 1
  28   18   19 2
  29   18   20 2
  30   18   22 1
  31   22   23 1
  32   22   31 1
  33   22   32 1

#	End of record

