#	Name: ASD01120385
#	Creating user name:	WinNT
#	Creation time:	15. 06. 2019 18:59

#	Modifying user name:	WinNT
#	Modification time:	15. 06. 2019 18:59

#	Program:	/corina/corina34_cracker 3.40 0067  02.08.2006

@<TRIPOS>MOLECULE
ASD01120385
  76   80    0    0    0
SMALL
NO_CHARGES


@<TRIPOS>ATOM
   1 Cl1           -2.3452     3.6551     6.3148 Cl      
   2 Cl2            9.8768     2.5699     1.4974 Cl      
   3 S3             1.4073     1.9435     2.7913 S.o2    
   4 S4             5.4295    -0.5119     1.1089 S.o2    
   5 N5             6.0629    -2.0132     0.8136 N.am    
   6 N6             1.4139     0.2946     2.9449 N.am    
   7 C7             0.6917    -0.4641     2.0968 C.2     
   8 C8             6.3421    -2.8407     1.8402 C.2     
   9 C9            -0.2320     2.4925     3.1315 C.ar    
  10 C10            6.6007     0.3642     2.0914 C.ar    
  11 O11            2.2248     2.4473     3.8388 O.2     
  12 O12            5.3781     0.1555    -0.1445 O.2     
  13 O13            4.2873    -0.7127     1.9299 O.2     
  14 O14            1.6460     2.2195     1.4179 O.2     
  15 C15           -0.5976     2.8169     4.4242 C.ar    
  16 C16            7.6449     1.0370     1.4858 C.ar    
  17 O17            0.1096     0.0537     1.1633 O.2     
  18 O18            6.2274    -2.4488     2.9854 O.2     
  19 N19            0.6148    -1.7966     2.2834 N.am    
  20 N20            6.7484    -4.1026     1.5973 N.am    
  21 C21           -1.8850     3.2480     4.6912 C.ar    
  22 C22            8.5645     1.7250     2.2575 C.ar    
  23 C23           -1.1507     2.6041     2.1043 C.ar    
  24 C24            6.4716     0.3832     3.4679 C.ar    
  25 C25           -2.4367     3.0352     2.3704 C.ar    
  26 C26            7.3897     1.0706     4.2393 C.ar    
  27 C27            7.2770    -4.9092     2.6902 C.3     
  28 C28            6.6536    -4.6317     0.2624 C.3     
  29 C29            1.2206    -2.3997     3.4637 C.3     
  30 C30           -0.0884    -2.6382     1.2935 C.3     
  31 C31           -2.8054     3.3541     3.6639 C.ar    
  32 C32            8.4381     1.7389     3.6350 C.ar    
  33 C33            6.1045    -5.9235     2.8827 C.3     
  34 C34            5.3106    -4.2763    -0.3343 C.3     
  35 C35            2.6670    -2.8220     3.2255 C.3     
  36 C36            0.6610    -3.9266     1.0138 C.3     
  37 C37            4.8438    -5.1182     3.1034 C.3     
  38 C38            4.2383    -4.9052     0.5734 C.3     
  39 C39            2.7773    -4.0141     2.3088 C.3     
  40 C40            2.1572    -3.6382     0.9290 C.3     
  41 C41            4.2533    -4.3383     1.9729 C.3     
  42 C42            2.8517    -4.5793    -0.0657 C.3     
  43 H43            6.2330    -2.2971    -0.0982 H       
  44 H44            1.9374    -0.1252     3.6453 H       
  45 H45            0.1213     2.7335     5.2258 H       
  46 H46            7.7433     1.0255     0.4103 H       
  47 H47           -0.8632     2.3547     1.0936 H       
  48 H48            5.6529    -0.1391     3.9405 H       
  49 H49           -3.1538     3.1225     1.5675 H       
  50 H50            7.2881     1.0854     5.3144 H       
  51 H51            8.1954    -5.4180     2.3972 H       
  52 H52            7.4300    -4.3081     3.5865 H       
  53 H53            7.4468    -4.2077    -0.3535 H       
  54 H54            6.7584    -5.7162     0.2933 H       
  55 H55            1.1935    -1.6793     4.2812 H       
  56 H56            0.6397    -3.2766     3.7494 H       
  57 H57           -1.0806    -2.8802     1.6745 H       
  58 H58           -0.1934    -2.0795     0.3635 H       
  59 H59           -3.8105     3.6902     3.8718 H       
  60 H60            9.1558     2.2754     4.2379 H       
  61 H61            5.9984    -6.5412     1.9909 H       
  62 H62            6.2983    -6.5539     3.7505 H       
  63 H63            5.1890    -3.1934    -0.3591 H       
  64 H64            5.2313    -4.6841    -1.3420 H       
  65 H65            3.2101    -1.9863     2.7840 H       
  66 H66            3.1241    -3.0703     4.1834 H       
  67 H67            0.4732    -4.6379     1.8181 H       
  68 H68            0.3183    -4.3483     0.0689 H       
  69 H69            4.0769    -5.8058     3.4598 H       
  70 H70            5.0437    -4.4165     3.9132 H       
  71 H71            4.3794    -5.9852     0.6160 H       
  72 H72            2.2788    -4.8816     2.7414 H       
  73 H73            2.3410    -2.5942     0.6755 H       
  74 H74            4.7735    -3.3814     1.9297 H       
  75 H75            2.9876    -4.0825    -1.0263 H       
  76 H76            2.2719    -5.4935    -0.1930 H       
@<TRIPOS>BOND
   1    1   21 1
   2    2   22 1
   3    3    6 am
   4    3    9 1
   5    3   11 2
   6    3   14 2
   7    4    5 am
   8    4   10 1
   9    4   12 2
  10    4   13 2
  11    5    8 am
  12    5   43 1
  13    6    7 am
  14    6   44 1
  15    7   17 2
  16    7   19 am
  17    8   18 2
  18    8   20 am
  19    9   15 ar
  20    9   23 ar
  21   10   16 ar
  22   10   24 ar
  23   15   21 ar
  24   15   45 1
  25   16   22 ar
  26   16   46 1
  27   19   29 1
  28   19   30 1
  29   20   27 1
  30   20   28 1
  31   21   31 ar
  32   22   32 ar
  33   23   25 ar
  34   23   47 1
  35   24   26 ar
  36   24   48 1
  37   25   31 ar
  38   25   49 1
  39   26   32 ar
  40   26   50 1
  41   27   33 1
  42   27   51 1
  43   27   52 1
  44   28   34 1
  45   28   53 1
  46   28   54 1
  47   29   35 1
  48   29   55 1
  49   29   56 1
  50   30   36 1
  51   30   57 1
  52   30   58 1
  53   31   59 1
  54   32   60 1
  55   33   37 1
  56   33   61 1
  57   33   62 1
  58   34   38 1
  59   34   63 1
  60   34   64 1
  61   35   39 1
  62   35   65 1
  63   35   66 1
  64   36   40 1
  65   36   67 1
  66   36   68 1
  67   37   41 1
  68   37   69 1
  69   37   70 1
  70   38   42 1
  71   38   41 1
  72   38   71 1
  73   39   41 1
  74   39   40 1
  75   39   72 1
  76   40   42 1
  77   40   73 1
  78   41   74 1
  79   42   75 1
  80   42   76 1

#	End of record

