#	Name: ASD03331295
#	Creating user name:	WinNT
#	Creation time:	15. 06. 2019 20:38

#	Modifying user name:	WinNT
#	Modification time:	15. 06. 2019 20:38

#	Program:	/corina/corina34_cracker 3.40 0067  02.08.2006

@<TRIPOS>MOLECULE
ASD03331295
  57   60    0    0    0
SMALL
NO_CHARGES


@<TRIPOS>ATOM
   1 N1            -0.0459     1.4956     0.5698 N.am    
   2 C2             0.0019     0.1506     1.1631 C.3     
   3 C3             0.5966    -0.8151     0.1327 C.3     
   4 N4             1.8894    -0.2950    -0.3322 N.3     
   5 C5             1.7288     0.9911    -1.0237 C.3     
   6 C6             1.1805     2.0309    -0.0406 C.3     
   7 C7            -1.1849     2.2161     0.5803 C.2     
   8 O8            -2.2139     1.7207     0.9973 O.2     
   9 N9            -1.1831     3.4859     0.1284 N.am    
  10 C10           -2.3851     4.1963     0.0330 C.ar    
  11 C11           -2.4015     5.5681     0.2480 C.ar    
  12 C12            2.5723    -1.2723    -1.1903 C.3     
  13 C13            3.7648    -0.6215    -1.8425 C.ar    
  14 C14            4.9494    -0.4753    -1.1350 C.ar    
  15 C15           -3.5629     3.5318    -0.2826 C.ar    
  16 C16           -4.7474     4.2358    -0.3765 C.ar    
  17 C17           -4.7613     5.6010    -0.1566 C.ar    
  18 C18           -3.5893     6.2664     0.1527 C.ar    
  19 C19            3.6813    -0.1752    -3.1469 C.ar    
  20 C20            4.7755     0.4213    -3.7463 C.ar    
  21 C21            5.9554     0.5724    -3.0420 C.ar    
  22 C22            6.0454     0.1238    -1.7383 C.ar    
  23 O23            5.0356    -0.9178     0.1471 O.3     
  24 C24            6.2859    -0.7341     0.8141 C.3     
  25 C25            6.1932    -1.2819     2.2150 C.ar    
  26 C26            6.5178    -2.6023     2.4637 C.ar    
  27 C27            6.4326    -3.1048     3.7487 C.ar    
  28 C28            6.0233    -2.2867     4.7850 C.ar    
  29 C29            5.6995    -0.9659     4.5365 C.ar    
  30 C30            5.7888    -0.4623     3.2522 C.ar    
  31 H31            0.6285     0.1659     2.0549 H       
  32 H32           -1.0063    -0.1697     1.4260 H       
  33 H33            0.7419    -1.7929     0.5920 H       
  34 H34           -0.0837    -0.9080    -0.7139 H       
  35 H35            2.6951     1.3233    -1.4030 H       
  36 H36            1.0327     0.8731    -1.8541 H       
  37 H37            0.9515     2.9537    -0.5736 H       
  38 H38            1.9203     2.2269     0.7355 H       
  39 H39           -0.3488     3.9073    -0.1307 H       
  40 H40           -1.4865     6.0883     0.4900 H       
  41 H41            2.9044    -2.1167    -0.5862 H       
  42 H42            1.8845    -1.6239    -1.9593 H       
  43 H43           -3.5526     2.4657    -0.4549 H       
  44 H44           -5.6637     3.7197    -0.6223 H       
  45 H45           -5.6889     6.1493    -0.2306 H       
  46 H46           -3.6034     7.3327     0.3239 H       
  47 H47            2.7607    -0.2925    -3.6994 H       
  48 H48            4.7083     0.7692    -4.7665 H       
  49 H49            6.8087     1.0383    -3.5124 H       
  50 H50            6.9673     0.2425    -1.1883 H       
  51 H51            7.0693    -1.2609     0.2692 H       
  52 H52            6.5234     0.3289     0.8547 H       
  53 H53            6.8376    -3.2415     1.6541 H       
  54 H54            6.6856    -4.1366     3.9429 H       
  55 H55            5.9561    -2.6794     5.7888 H       
  56 H56            5.3794    -0.3268     5.3461 H       
  57 H57            5.5359     0.5695     3.0580 H       
@<TRIPOS>BOND
   1    1    2 1
   2    1    6 1
   3    1    7 am
   4    2    3 1
   5    2   31 1
   6    2   32 1
   7    3    4 1
   8    3   33 1
   9    3   34 1
  10    4    5 1
  11    4   12 1
  12    5    6 1
  13    5   35 1
  14    5   36 1
  15    6   37 1
  16    6   38 1
  17    7    8 2
  18    7    9 am
  19    9   10 1
  20    9   39 1
  21   10   11 ar
  22   10   15 ar
  23   11   18 ar
  24   11   40 1
  25   12   13 1
  26   12   41 1
  27   12   42 1
  28   13   19 ar
  29   13   14 ar
  30   14   23 1
  31   14   22 ar
  32   15   16 ar
  33   15   43 1
  34   16   17 ar
  35   16   44 1
  36   17   18 ar
  37   17   45 1
  38   18   46 1
  39   19   20 ar
  40   19   47 1
  41   20   21 ar
  42   20   48 1
  43   21   22 ar
  44   21   49 1
  45   22   50 1
  46   23   24 1
  47   24   25 1
  48   24   51 1
  49   24   52 1
  50   25   26 ar
  51   25   30 ar
  52   26   27 ar
  53   26   53 1
  54   27   28 ar
  55   27   54 1
  56   28   29 ar
  57   28   55 1
  58   29   30 ar
  59   29   56 1
  60   30   57 1

#	End of record

