#	Name: ASD00061002
#	Creating user name:	WinNT
#	Creation time:	15. 06. 2019 18:29

#	Modifying user name:	WinNT
#	Modification time:	15. 06. 2019 18:29

#	Program:	/corina/corina34_cracker 3.40 0067  02.08.2006

@<TRIPOS>MOLECULE
ASD00061002
  41   43    0    0    0
SMALL
NO_CHARGES


@<TRIPOS>ATOM
   1 C1            -0.0167     1.3829     0.0096 C.ar    
   2 C2             0.0021    -0.0041     0.0020 C.ar    
   3 N3            -1.2099    -0.7082    -0.0137 N.am    
   4 C4            -2.1496    -0.3597    -0.9119 C.2     
   5 C5            -1.8553     0.6941    -1.9425 C.3     
   6 C6            -1.9891     2.0910    -1.3358 C.3     
   7 C7            -1.3320     2.1133     0.0457 C.3     
   8 C8             1.1718     2.0868     0.0021 C.ar    
   9 C9             2.3765     1.4077    -0.0025 C.ar    
  10 C10            2.3967     0.0248    -0.0002 C.ar    
  11 C11            1.2109    -0.6846     0.0024 C.ar    
  12 O12           -3.2367    -0.8970    -0.8894 O.2     
  13 N13           -0.4902     0.5131    -2.4424 N.pl3   
  14 C14           -0.2405    -0.3862    -3.4815 C.ar    
  15 C15            1.0534    -0.5590    -3.9567 C.ar    
  16 C16            1.2969    -1.4494    -4.9838 C.ar    
  17 C17            0.2545    -2.1686    -5.5392 C.ar    
  18 C18           -1.0347    -1.9990    -5.0686 C.ar    
  19 C19           -1.2845    -1.1141    -4.0381 C.ar    
  20 C20           -1.4489    -1.8033     0.9295 C.3     
  21 C21           -2.0787    -1.2567     2.1848 C.2     
  22 O22           -2.3048    -0.0737     2.2815 O.2     
  23 O23           -2.3886    -2.0840     3.1953 O.3     
  24 H24           -2.5571     0.5930    -2.7704 H       
  25 H25           -1.4974     2.8168    -1.9835 H       
  26 H26           -3.0446     2.3459    -1.2403 H       
  27 H27           -1.9922     1.6320     0.7672 H       
  28 H28           -1.1628     3.1468     0.3482 H       
  29 H29            1.1603     3.1667    -0.0007 H       
  30 H30            3.3050     1.9593    -0.0081 H       
  31 H31            3.3400    -0.5010    -0.0001 H       
  32 H32            1.2252    -1.7645     0.0040 H       
  33 H33            0.2402     1.0179    -2.0518 H       
  34 H34            1.8679     0.0026    -3.5236 H       
  35 H35            2.3025    -1.5840    -5.3540 H       
  36 H36            0.4476    -2.8640    -6.3427 H       
  37 H37           -1.8466    -2.5623    -5.5046 H       
  38 H38           -2.2915    -0.9824    -3.6707 H       
  39 H39           -2.1182    -2.5342     0.4757 H       
  40 H40           -0.5018    -2.2827     1.1773 H       
  41 H41           -2.7909    -1.6871     3.9800 H       
@<TRIPOS>BOND
   1    1    2 ar
   2    1    8 ar
   3    1    7 1
   4    2    3 1
   5    2   11 ar
   6    3    4 am
   7    3   20 1
   8    4    5 1
   9    4   12 2
  10    5    6 1
  11    5   13 1
  12    5   24 1
  13    6    7 1
  14    6   25 1
  15    6   26 1
  16    7   27 1
  17    7   28 1
  18    8    9 ar
  19    8   29 1
  20    9   10 ar
  21    9   30 1
  22   10   11 ar
  23   10   31 1
  24   11   32 1
  25   13   14 1
  26   13   33 1
  27   14   15 ar
  28   14   19 ar
  29   15   16 ar
  30   15   34 1
  31   16   17 ar
  32   16   35 1
  33   17   18 ar
  34   17   36 1
  35   18   19 ar
  36   18   37 1
  37   19   38 1
  38   20   21 1
  39   20   39 1
  40   20   40 1
  41   21   22 2
  42   21   23 1
  43   23   41 1

#	End of record

