#	Name: ASD01901312
#	Creating user name:	WinNT
#	Creation time:	15. 06. 2019 19:53

#	Modifying user name:	WinNT
#	Modification time:	15. 06. 2019 19:53

#	Program:	/corina/corina34_cracker 3.40 0067  02.08.2006

@<TRIPOS>MOLECULE
ASD01901312
  38   41    0    0    0
SMALL
NO_CHARGES


@<TRIPOS>ATOM
   1 C1            -0.0167     1.3802     0.0096 C.ar    
   2 C2             0.0021    -0.0041     0.0020 C.ar    
   3 C3             1.2101    -0.6812    -0.0127 C.ar    
   4 C4             2.4018     0.0205    -0.0203 C.ar    
   5 C5             2.3946     1.4009    -0.0128 C.ar    
   6 C6             1.1841     2.0900     0.0020 C.ar    
   7 C7             1.1719     3.5741     0.0096 C.2     
   8 N8             0.8583     5.5919     1.1947 N.2     
   9 C9             0.8678     4.2814     1.1930 C.2     
  10 C10            1.4605     4.2753    -1.1276 C.2     
  11 C11            1.1346     6.2883     0.0818 C.2     
  12 N12            1.1857     7.5916    -0.1540 N.2     
  13 N13            1.4404     5.6380    -1.0860 N.pl3   
  14 C14            1.6774     6.5976    -2.0331 C.2     
  15 C15            1.5139     7.7959    -1.4332 C.2     
  16 C16            1.6740     9.1399    -2.0959 C.3     
  17 O17            2.0286     8.9553    -3.4678 O.3     
  18 C18            2.2118    10.0763    -4.2139 C.ar    
  19 C19            2.0592    11.3282    -3.6360 C.ar    
  20 C20            2.5575     9.9707    -5.5533 C.ar    
  21 C21            2.7432    11.1117    -6.3096 C.ar    
  22 C22            2.5853    12.3583    -5.7325 C.ar    
  23 C23            2.2460    12.4662    -4.3965 C.ar    
  24 F24           -1.1946     2.0417     0.0188 F       
  25 F25           -1.1589    -0.6949     0.0094 F       
  26 H26            1.2216    -1.7611    -0.0179 H       
  27 H27            3.3408    -0.5130    -0.0318 H       
  28 H28            3.3269     1.9462    -0.0181 H       
  29 H29            0.6418     3.7406     2.1001 H       
  30 H30            1.7011     3.7581    -2.0447 H       
  31 H31            1.9451     6.4281    -3.0656 H       
  32 H32            0.7347     9.6895    -2.0342 H       
  33 H33            2.4585     9.7031    -1.5904 H       
  34 H34            1.7942    11.4131    -2.5924 H       
  35 H35            2.6816     8.9973    -6.0043 H       
  36 H36            3.0122    11.0301    -7.3523 H       
  37 H37            2.7312    13.2491    -6.3254 H       
  38 H38            2.1272    13.4411    -3.9471 H       
@<TRIPOS>BOND
   1    1    2 ar
   2    1    6 ar
   3    1   24 1
   4    2    3 ar
   5    2   25 1
   6    3    4 ar
   7    3   26 1
   8    4    5 ar
   9    4   27 1
  10    5    6 ar
  11    5   28 1
  12    6    7 1
  13    7   10 2
  14    7    9 1
  15    8    9 2
  16    8   11 1
  17    9   29 1
  18   10   13 1
  19   10   30 1
  20   11   13 1
  21   11   12 2
  22   12   15 1
  23   13   14 1
  24   14   15 2
  25   14   31 1
  26   15   16 1
  27   16   17 1
  28   16   32 1
  29   16   33 1
  30   17   18 1
  31   18   20 ar
  32   18   19 ar
  33   19   23 ar
  34   19   34 1
  35   20   21 ar
  36   20   35 1
  37   21   22 ar
  38   21   36 1
  39   22   23 ar
  40   22   37 1
  41   23   38 1

#	End of record

