#	Name: ASD09890071
#	Creating user name:	WinNT
#	Creation time:	15. 06. 2019 21:24

#	Modifying user name:	WinNT
#	Modification time:	15. 06. 2019 21:24

#	Program:	/corina/corina34_cracker 3.40 0067  02.08.2006

@<TRIPOS>MOLECULE
ASD09890071
  42   45    0    0    0
SMALL
NO_CHARGES


@<TRIPOS>ATOM
   1 C1            -0.0176     1.3671     0.0633 C.2     
   2 N2            -0.0054    -0.0002     0.0335 N.pl3   
   3 C3            -1.2996    -0.4352     0.1166 C.2     
   4 N4            -2.0758     0.6192     0.1941 N.2     
   5 N5            -1.2621     1.7592     0.1651 N.2     
   6 S6            -1.8302    -2.1154     0.1184 S.3     
   7 C7            -3.6338    -1.9736     0.2501 C.3     
   8 C8             1.1336    -0.8132    -0.0652 C.ar    
   9 C9             2.0779    -0.8326     0.9571 C.ar    
  10 C10            3.1860    -1.6521     0.8142 C.ar    
  11 C11            3.3166    -2.4172    -0.3295 C.ar    
  12 N12            2.4034    -2.3759    -1.2801 N.ar    
  13 C13            1.3323    -1.6143    -1.1813 C.ar    
  14 C14           -4.2814    -3.3651     0.1402 C.3     
  15 C15           -5.0388    -3.6045     1.4626 C.3     
  16 C16           -5.3158    -2.1803     2.0049 C.3     
  17 C17           -4.0203    -1.4159     1.6356 C.3     
  18 O18            1.0702     2.1752     0.0035 O.3     
  19 C19            0.8650     3.5150    -0.0919 C.ar    
  20 C20           -0.4175     4.0098    -0.2838 C.ar    
  21 C21            1.9362     4.3904     0.0080 C.ar    
  22 C22            1.7243     5.7544    -0.0896 C.ar    
  23 C23            0.4439     6.2440    -0.2863 C.ar    
  24 C24           -0.6248     5.3719    -0.3807 C.ar    
  25 F25            2.7665     6.6085     0.0075 F       
  26 H26           -4.0152    -1.3212    -0.5354 H       
  27 H27            1.9502    -0.2237     1.8399 H       
  28 H28            3.9392    -1.6922     1.5872 H       
  29 H29            4.1785    -3.0575    -0.4464 H       
  30 H30            0.6060    -1.6072    -1.9805 H       
  31 H31           -4.9777    -3.3877    -0.6982 H       
  32 H32           -3.5119    -4.1256     0.0076 H       
  33 H33           -5.9750    -4.1305     1.2762 H       
  34 H34           -4.4179    -4.1648     2.1618 H       
  35 H35           -6.1797    -1.7390     1.5078 H       
  36 H36           -5.4585    -2.1993     3.0853 H       
  37 H37           -3.2349    -1.6228     2.3627 H       
  38 H38           -4.2132    -0.3448     1.5754 H       
  39 H39           -1.2533     3.3297    -0.3577 H       
  40 H40            2.9344     4.0081     0.1621 H       
  41 H41            0.2794     7.3087    -0.3620 H       
  42 H42           -1.6224     5.7561    -0.5341 H       
@<TRIPOS>BOND
   1    1    2 1
   2    1   18 1
   3    1    5 2
   4    2    3 1
   5    2    8 1
   6    3    4 2
   7    3    6 1
   8    4    5 1
   9    6    7 1
  10    7   14 1
  11    7   17 1
  12    7   26 1
  13    8    9 ar
  14    8   13 ar
  15    9   10 ar
  16    9   27 1
  17   10   11 ar
  18   10   28 1
  19   11   12 ar
  20   11   29 1
  21   12   13 ar
  22   13   30 1
  23   14   15 1
  24   14   31 1
  25   14   32 1
  26   15   16 1
  27   15   33 1
  28   15   34 1
  29   16   17 1
  30   16   35 1
  31   16   36 1
  32   17   37 1
  33   17   38 1
  34   18   19 1
  35   19   20 ar
  36   19   21 ar
  37   20   24 ar
  38   20   39 1
  39   21   22 ar
  40   21   40 1
  41   22   23 ar
  42   22   25 1
  43   23   24 ar
  44   23   41 1
  45   24   42 1

#	End of record

