#	Name: ASD01812694
#	Creating user name:	WinNT
#	Creation time:	15. 06. 2019 19:29

#	Modifying user name:	WinNT
#	Modification time:	15. 06. 2019 19:29

#	Program:	/corina/corina34_cracker 3.40 0067  02.08.2006

@<TRIPOS>MOLECULE
ASD01812694
  58   62    0    0    0
SMALL
NO_CHARGES


@<TRIPOS>ATOM
   1 O1            -0.0163     1.3522     0.0095 O.3     
   2 C2             0.0021    -0.0041     0.0020 C.ar    
   3 C3             1.2105    -0.6847    -0.0132 C.ar    
   4 C4             1.2312    -2.0655    -0.0203 C.ar    
   5 C5             0.0448    -2.7828    -0.0124 C.ar    
   6 C6            -1.1604    -2.1223     0.0023 C.ar    
   7 C7            -1.2004    -0.7252     0.0155 C.ar    
   8 C8            -2.5947    -2.5891     0.0133 C.3     
   9 N9            -3.4200    -1.3759     0.0272 N.am    
  10 C10           -2.6104    -0.3028     0.0376 C.2     
  11 C11           -4.8845    -1.3401     0.0406 C.3     
  12 O12           -2.9891     0.8526     0.0493 O.2     
  13 C13           -5.3738    -1.3353     1.4660 C.ar    
  14 C14           -5.5681    -0.1336     2.1234 C.ar    
  15 C15           -6.0154    -0.1224     3.4285 C.ar    
  16 C16           -6.2724    -1.3264     4.0852 C.ar    
  17 C17           -6.0748    -2.5350     3.4163 C.ar    
  18 C18           -5.6321    -2.5324     2.1095 C.ar    
  19 C19            1.1734     2.0057     0.0016 C.ar    
  20 C20            1.7788     2.3511    -1.2138 C.ar    
  21 C21            3.0035     3.0242    -1.2092 C.ar    
  22 C22            3.6081     3.3441    -0.0129 C.ar    
  23 C23            3.0080     3.0013     1.1876 C.ar    
  24 C24            1.7936     2.3402     1.1983 C.ar    
  25 F25            1.2126     2.0146     2.3738 F       
  26 C26            1.1463     2.0158    -2.4540 C.1     
  27 N27            0.6445     1.7497    -3.4379 N.1     
  28 C28           -6.7514    -1.3217     5.4835 C.2     
  29 C29           -7.9324    -0.8060     5.7438 C.2     
  30 C30           -8.5118    -0.7428     7.1278 C.3     
  31 N31           -7.7979    -1.6648     8.0202 N.3     
  32 C32           -6.3457    -1.4416     7.9280 C.3     
  33 C33           -5.8708    -1.9122     6.5493 C.3     
  34 C34           -8.2653    -1.5241     9.4057 C.3     
  35 H35            2.1387    -0.1327    -0.0198 H       
  36 H36            2.1758    -2.5889    -0.0325 H       
  37 H37            0.0677    -3.8626    -0.0180 H       
  38 H38           -2.8049    -3.1752    -0.8813 H       
  39 H39           -2.7882    -3.1842     0.9058 H       
  40 H40           -5.2306    -0.4389    -0.4654 H       
  41 H41           -5.2741    -2.2183    -0.4743 H       
  42 H42           -5.3688     0.7976     1.6140 H       
  43 H43           -6.1660     0.8164     3.9409 H       
  44 H44           -6.2716    -3.4703     3.9192 H       
  45 H45           -5.4830    -3.4670     1.5893 H       
  46 H46            3.4759     3.2932    -2.1424 H       
  47 H47            4.5545     3.8644    -0.0113 H       
  48 H48            3.4893     3.2553     2.1204 H       
  49 H49           -8.5129    -0.4090     4.9241 H       
  50 H50           -8.4209     0.2735     7.5112 H       
  51 H51           -9.5655    -1.0194     7.0911 H       
  52 H52           -6.1299    -0.3802     8.0509 H       
  53 H53           -5.8373    -2.0137     8.7042 H       
  54 H54           -5.9182    -3.0000     6.4973 H       
  55 H55           -4.8425    -1.5868     6.3915 H       
  56 H56           -9.3438    -1.6774     9.4427 H       
  57 H57           -7.7711    -2.2660    10.0330 H       
  58 H58           -8.0277    -0.5244     9.7696 H       
@<TRIPOS>BOND
   1    1    2 1
   2    1   19 1
   3    2    3 ar
   4    2    7 ar
   5    3    4 ar
   6    3   35 1
   7    4    5 ar
   8    4   36 1
   9    5    6 ar
  10    5   37 1
  11    6    8 1
  12    6    7 ar
  13    7   10 1
  14    8    9 1
  15    8   38 1
  16    8   39 1
  17    9   10 am
  18    9   11 1
  19   10   12 2
  20   11   13 1
  21   11   40 1
  22   11   41 1
  23   13   14 ar
  24   13   18 ar
  25   14   15 ar
  26   14   42 1
  27   15   16 ar
  28   15   43 1
  29   16   17 ar
  30   16   28 1
  31   17   18 ar
  32   17   44 1
  33   18   45 1
  34   19   20 ar
  35   19   24 ar
  36   20   21 ar
  37   20   26 1
  38   21   22 ar
  39   21   46 1
  40   22   23 ar
  41   22   47 1
  42   23   24 ar
  43   23   48 1
  44   24   25 1
  45   26   27 3
  46   28   29 2
  47   28   33 1
  48   29   30 1
  49   29   49 1
  50   30   31 1
  51   30   50 1
  52   30   51 1
  53   31   32 1
  54   31   34 1
  55   32   33 1
  56   32   52 1
  57   32   53 1
  58   33   54 1
  59   33   55 1
  60   34   56 1
  61   34   57 1
  62   34   58 1

#	End of record

