#	Name: ASD01180086
#	Creating user name:	WinNT
#	Creation time:	15. 06. 2019 19:06

#	Modifying user name:	WinNT
#	Modification time:	15. 06. 2019 19:06

#	Program:	/corina/corina34_cracker 3.40 0067  02.08.2006

@<TRIPOS>MOLECULE
ASD01180086
  60   62    0    0    0
SMALL
NO_CHARGES


@<TRIPOS>ATOM
   1 C1             1.0601     1.6757     1.3229 C.2     
   2 C2             0.9035     0.1865     1.1533 C.3     
   3 C3             2.2803    -0.4524     0.9604 C.3     
   4 O4             2.1601     2.1748     1.2926 O.2     
   5 O5            -0.0227     2.4484     1.5021 O.3     
   6 C6             3.2148    -2.6753     0.6101 C.2     
   7 C7             3.0611    -4.1363     0.4437 C.ar    
   8 C8             4.1846    -4.9418     0.2514 C.ar    
   9 C9             4.0343    -6.3045     0.0973 C.ar    
  10 C10            2.7733    -6.8728     0.1326 C.ar    
  11 C11            1.6555    -6.0800     0.3228 C.ar    
  12 C12            1.7924    -4.7167     0.4840 C.ar    
  13 O13            4.3214    -2.1732     0.5796 O.2     
  14 N14            2.1280    -1.9001     0.7955 N.am    
  15 C15            2.6166    -8.3620    -0.0375 C.3     
  16 C16            2.4325    -9.0153     1.3337 C.3     
  17 C17            2.3874   -10.5361     1.1721 C.3     
  18 C18            3.7450   -11.0366     0.6749 C.3     
  19 N19            1.4439    -8.6376    -0.8712 N.pl3   
  20 N20            2.9015    -8.2227    -4.1696 N.ar    
  21 C21            2.7787    -8.3078    -2.8686 C.ar    
  22 C22            1.5403    -8.5527    -2.2621 C.ar    
  23 C23            0.4146    -8.7103    -3.0474 C.ar    
  24 C24            0.5640    -8.6164    -4.4431 C.ar    
  25 C25           -0.5343    -8.7655    -5.3056 C.ar    
  26 C26           -0.3513    -8.6682    -6.6513 C.ar    
  27 C27            0.9121    -8.4224    -7.1845 C.ar    
  28 C28            1.9982    -8.2727    -6.3780 C.ar    
  29 C29            1.8504    -8.3664    -4.9831 C.ar    
  30 C30           -1.9075    -9.0323    -4.7449 C.3     
  31 C31            2.0682   -11.1831     2.5214 C.3     
  32 H32            0.4297    -0.2324     2.0410 H       
  33 H33            0.2832    -0.0165     0.2803 H       
  34 H34            2.7541    -0.0335     0.0726 H       
  35 H35            2.9006    -0.2494     1.8334 H       
  36 H36            0.1278     3.3979     1.6062 H       
  37 H37            5.1694    -4.4993     0.2230 H       
  38 H38            4.9028    -6.9290    -0.0515 H       
  39 H39            0.6740    -6.5298     0.3493 H       
  40 H40            0.9195    -4.0994     0.6368 H       
  41 H41            1.2449    -2.3008     0.8199 H       
  42 H42            3.5070    -8.7686    -0.5170 H       
  43 H43            3.2664    -8.7433     1.9807 H       
  44 H44            1.4995    -8.6694     1.7787 H       
  45 H45            1.6154   -10.8020     0.4500 H       
  46 H46            4.5061   -10.8304     1.4274 H       
  47 H47            3.6929   -12.1105     0.4956 H       
  48 H48            4.0032   -10.5255    -0.2526 H       
  49 H49            0.6005    -8.8790    -0.4573 H       
  50 H50            3.6541    -8.1858    -2.2479 H       
  51 H51           -0.5513    -8.9003    -2.6031 H       
  52 H52           -1.1964    -8.7833    -7.3139 H       
  53 H53            1.0317    -8.3498    -8.2554 H       
  54 H54            2.9703    -8.0823    -6.8082 H       
  55 H55           -2.4147    -8.0853    -4.5602 H       
  56 H56           -2.4839    -9.6199    -5.4595 H       
  57 H57           -1.8170    -9.5845    -3.8095 H       
  58 H58            1.1010   -10.8265     2.8756 H       
  59 H59            2.0361   -12.2665     2.4063 H       
  60 H60            2.8402   -10.9172     3.2435 H       
@<TRIPOS>BOND
   1    1    2 1
   2    1    4 2
   3    1    5 1
   4    2    3 1
   5    2   32 1
   6    2   33 1
   7    3   14 1
   8    3   34 1
   9    3   35 1
  10    5   36 1
  11    6    7 1
  12    6   13 2
  13    6   14 am
  14    7    8 ar
  15    7   12 ar
  16    8    9 ar
  17    8   37 1
  18    9   10 ar
  19    9   38 1
  20   10   11 ar
  21   10   15 1
  22   11   12 ar
  23   11   39 1
  24   12   40 1
  25   14   41 1
  26   15   16 1
  27   15   19 1
  28   15   42 1
  29   16   17 1
  30   16   43 1
  31   16   44 1
  32   17   18 1
  33   17   31 1
  34   17   45 1
  35   18   46 1
  36   18   47 1
  37   18   48 1
  38   19   22 1
  39   19   49 1
  40   20   21 ar
  41   20   29 ar
  42   21   22 ar
  43   21   50 1
  44   22   23 ar
  45   23   24 ar
  46   23   51 1
  47   24   25 ar
  48   24   29 ar
  49   25   26 ar
  50   25   30 1
  51   26   27 ar
  52   26   52 1
  53   27   28 ar
  54   27   53 1
  55   28   29 ar
  56   28   54 1
  57   30   55 1
  58   30   56 1
  59   30   57 1
  60   31   58 1
  61   31   59 1
  62   31   60 1

#	End of record

