#	Name: ASD01917690
#	Creating user name:	WinNT
#	Creation time:	15. 06. 2019 20:09

#	Modifying user name:	WinNT
#	Modification time:	15. 06. 2019 20:09

#	Program:	/corina/corina34_cracker 3.40 0067  02.08.2006

@<TRIPOS>MOLECULE
ASD01917690
  46   48    0    0    0
SMALL
NO_CHARGES


@<TRIPOS>ATOM
   1 C1            -0.0158     1.3153     0.0093 C.ar    
   2 N2             0.0021    -0.0041     0.0020 N.ar    
   3 C3            -1.1061    -0.7148     0.0088 C.ar    
   4 C4            -2.3535    -0.0850     0.0241 C.ar    
   5 C5            -2.4037     1.3153     0.0321 C.ar    
   6 C6            -1.2095     2.0140     0.0301 C.ar    
   7 C7            -3.5595    -0.8572     0.0257 C.1     
   8 C8            -4.5481    -1.4902     0.0270 C.1     
   9 C9            -5.7541    -2.2624     0.0286 C.ar    
  10 C10           -5.6932    -3.6586     0.0205 C.ar    
  11 C11           -6.8578    -4.3965     0.0226 C.ar    
  12 C12           -8.0873    -3.7564     0.0322 C.ar    
  13 C13           -8.1542    -2.3719     0.0402 C.ar    
  14 C14           -6.9966    -1.6229     0.0440 C.ar    
  15 C15            1.2864     2.0738     0.0009 C.3     
  16 C16            1.1257     3.3318    -0.8033 C.2     
  17 N17            1.6218     4.5122    -0.4306 N.am    
  18 C18            2.3373     4.7404     0.8185 C.3     
  19 C19            2.8461     3.4178     1.3932 C.3     
  20 C20            1.6816     2.4214     1.4383 C.3     
  21 C21            3.5251     5.6691     0.5585 C.3     
  22 C22            1.3957     5.4012     1.8273 C.3     
  23 C23            1.4363     5.6509    -1.3335 C.3     
  24 O24            0.5124     3.2709    -1.8478 O.2     
  25 F25           -9.2250    -4.4849     0.0332 F       
  26 H26           -1.0507    -1.7934     0.0021 H       
  27 H27           -3.3500     1.8357     0.0392 H       
  28 H28           -1.2094     3.0940     0.0358 H       
  29 H29           -4.7359    -4.1585     0.0124 H       
  30 H30           -6.8121    -5.4755     0.0164 H       
  31 H31           -9.1151    -1.8788     0.0472 H       
  32 H32           -7.0500    -0.5443     0.0506 H       
  33 H33            2.0633     1.4543    -0.4471 H       
  34 H34            3.6395     3.0241     0.7579 H       
  35 H35            3.2281     3.5799     2.4012 H       
  36 H36            0.8330     2.8717     1.9533 H       
  37 H37            1.9920     1.5175     1.9625 H       
  38 H38            3.1640     6.6197     0.1660 H       
  39 H39            4.0623     5.8417     1.4911 H       
  40 H40            4.1952     5.2076    -0.1667 H       
  41 H41            0.5424     4.7480     2.0097 H       
  42 H42            1.9281     5.5731     2.7627 H       
  43 H43            1.0457     6.3532     1.4281 H       
  44 H44            0.8885     5.3273    -2.2186 H       
  45 H45            0.8727     6.4316    -0.8226 H       
  46 H46            2.4096     6.0410    -1.6310 H       
@<TRIPOS>BOND
   1    1    2 ar
   2    1   15 1
   3    1    6 ar
   4    2    3 ar
   5    3    4 ar
   6    3   26 1
   7    4    5 ar
   8    4    7 1
   9    5    6 ar
  10    5   27 1
  11    6   28 1
  12    7    8 3
  13    8    9 1
  14    9   10 ar
  15    9   14 ar
  16   10   11 ar
  17   10   29 1
  18   11   12 ar
  19   11   30 1
  20   12   13 ar
  21   12   25 1
  22   13   14 ar
  23   13   31 1
  24   14   32 1
  25   15   16 1
  26   15   20 1
  27   15   33 1
  28   16   17 am
  29   16   24 2
  30   17   18 1
  31   17   23 1
  32   18   19 1
  33   18   21 1
  34   18   22 1
  35   19   20 1
  36   19   34 1
  37   19   35 1
  38   20   36 1
  39   20   37 1
  40   21   38 1
  41   21   39 1
  42   21   40 1
  43   22   41 1
  44   22   42 1
  45   22   43 1
  46   23   44 1
  47   23   45 1
  48   23   46 1

#	End of record

