#	Name: ASD01410565
#	Creating user name:	WinNT
#	Creation time:	15. 06. 2019 19:18

#	Modifying user name:	WinNT
#	Modification time:	15. 06. 2019 19:18

#	Program:	/corina/corina34_cracker 3.40 0067  02.08.2006

@<TRIPOS>MOLECULE
ASD01410565
  65   68    0    0    0
SMALL
NO_CHARGES


@<TRIPOS>ATOM
   1 C1            -0.2501    -1.3939     2.4830 C.ar    
   2 C2             0.4715    -2.0021     3.5007 C.ar    
   3 C3             1.8362    -2.1600     3.3601 C.ar    
   4 N4             2.4572    -1.7404     2.2744 N.ar    
   5 C5             1.8041    -1.1562     1.2832 C.ar    
   6 C6             0.4303    -0.9650     1.3566 C.ar    
   7 O7             2.4827    -0.7399     0.1847 O.3     
   8 C8             3.8370    -0.8603     0.1873 C.ar    
   9 C9             4.4207    -2.1189     0.1049 C.ar    
  10 C10            5.7943    -2.2524     0.1068 C.ar    
  11 C11            6.6036    -1.1281     0.1918 C.ar    
  12 C12            6.0206     0.1456     0.2752 C.ar    
  13 C13            4.6293     0.2705     0.2664 C.ar    
  14 N14            7.9920    -1.2638     0.1946 N.am    
  15 C15            8.6648    -1.3315    -0.9713 C.2     
  16 C16            8.6874    -1.3298     1.4102 C.ar    
  17 O17            9.8577    -1.5508    -0.9711 O.2     
  18 C18            7.9350    -1.1347    -2.2750 C.3     
  19 C19            8.7057    -1.8275    -3.4005 C.3     
  20 C20            7.9648    -1.6277    -4.7241 C.3     
  21 C21            7.8553    -0.1319    -5.0266 C.3     
  22 C22            7.0847     0.5610    -3.9010 C.3     
  23 C23            7.8256     0.3611    -2.5774 C.3     
  24 C24            7.1144     0.0679    -6.3502 C.3     
  25 C25            7.9882    -1.4193     2.6064 C.ar    
  26 C26            8.6737    -1.4841     3.8032 C.ar    
  27 C27           10.7601    -1.3763     2.6155 C.ar    
  28 C28           10.0758    -1.3113     1.4179 C.ar    
  29 C29           10.0608    -1.4595     3.8107 C.ar    
  30 O30           10.7351    -1.5225     4.9896 O.3     
  31 C31           12.1623    -1.4924     4.9230 C.3     
  32 C32            6.8717     1.3455     0.3663 C.2     
  33 O33            8.0817     1.2334     0.3692 O.2     
  34 O34            6.3080     2.5669     0.4463 O.3     
  35 C35           -0.3094    -0.2990     0.2250 C.3     
  36 F36           -1.6710    -0.2249     0.5377 F       
  37 F37            0.1959     0.9913     0.0330 F       
  38 F38           -0.1398    -1.0453    -0.9461 F       
  39 H39           -1.3188    -1.2623     2.5663 H       
  40 H40           -0.0289    -2.3479     4.3932 H       
  41 H41            2.4023    -2.6327     4.1491 H       
  42 H42            3.7958    -2.9974     0.0393 H       
  43 H43            6.2404    -3.2339     0.0425 H       
  44 H44            4.1733     1.2475     0.3300 H       
  45 H45            6.9360    -1.5643    -2.2006 H       
  46 H46            9.7047    -1.3979    -3.4749 H       
  47 H47            8.7837    -2.8932    -3.1851 H       
  48 H48            8.5138    -2.1213    -5.5260 H       
  49 H49            6.9658    -2.0574    -4.6498 H       
  50 H50            8.8543     0.2978    -5.1010 H       
  51 H51            7.0067     1.6266    -4.1165 H       
  52 H52            6.0857     0.1313    -3.8267 H       
  53 H53            7.2766     0.8548    -1.7756 H       
  54 H54            8.8246     0.7908    -2.6518 H       
  55 H55            6.1154    -0.3617    -6.2758 H       
  56 H56            7.0365     1.1336    -6.5657 H       
  57 H57            7.6634    -0.4257    -7.1521 H       
  58 H58            6.9084    -1.4378     2.6007 H       
  59 H59            8.1299    -1.5538     4.7338 H       
  60 H60           11.8400    -1.3623     2.6216 H       
  61 H61           10.6203    -1.2469     0.4875 H       
  62 H62           12.5167    -2.3405     4.3372 H       
  63 H63           12.4845    -0.5644     4.4506 H       
  64 H64           12.5743    -1.5492     5.9306 H       
  65 H65            6.9070     3.3239     0.5043 H       
@<TRIPOS>BOND
   1    1    2 ar
   2    1    6 ar
   3    1   39 1
   4    2    3 ar
   5    2   40 1
   6    3    4 ar
   7    3   41 1
   8    4    5 ar
   9    5    6 ar
  10    5    7 1
  11    6   35 1
  12    7    8 1
  13    8    9 ar
  14    8   13 ar
  15    9   10 ar
  16    9   42 1
  17   10   11 ar
  18   10   43 1
  19   11   12 ar
  20   11   14 1
  21   12   13 ar
  22   12   32 1
  23   13   44 1
  24   14   15 am
  25   14   16 1
  26   15   17 2
  27   15   18 1
  28   16   25 ar
  29   16   28 ar
  30   18   19 1
  31   18   23 1
  32   18   45 1
  33   19   20 1
  34   19   46 1
  35   19   47 1
  36   20   21 1
  37   20   48 1
  38   20   49 1
  39   21   22 1
  40   21   24 1
  41   21   50 1
  42   22   23 1
  43   22   51 1
  44   22   52 1
  45   23   53 1
  46   23   54 1
  47   24   55 1
  48   24   56 1
  49   24   57 1
  50   25   26 ar
  51   25   58 1
  52   26   29 ar
  53   26   59 1
  54   27   28 ar
  55   27   29 ar
  56   27   60 1
  57   28   61 1
  58   29   30 1
  59   30   31 1
  60   31   62 1
  61   31   63 1
  62   31   64 1
  63   32   33 2
  64   32   34 1
  65   34   65 1
  66   35   36 1
  67   35   37 1
  68   35   38 1

#	End of record

