#	Name: ASD03091566
#	Creating user name:	WinNT
#	Creation time:	15. 06. 2019 20:30

#	Modifying user name:	WinNT
#	Modification time:	15. 06. 2019 20:30

#	Program:	/corina/corina34_cracker 3.40 0067  02.08.2006

@<TRIPOS>MOLECULE
ASD03091566
  48   50    0    0    0
SMALL
NO_CHARGES


@<TRIPOS>ATOM
   1 C1            -0.0194     1.3494     0.0164 C.2     
   2 C2            -0.0037     0.0112     0.1891 C.2     
   3 N3            -1.1904    -0.5545     0.1453 N.2     
   4 C4            -2.2100     0.2255    -0.0542 C.2     
   5 S5            -1.6946     1.8485    -0.2041 S.3     
   6 N6            -3.5250    -0.1963    -0.1296 N.3     
   7 C7            -3.6222    -1.6525     0.0469 C.3     
   8 C8            -4.3606     0.5049     0.8561 C.3     
   9 C9            -5.8147     0.0528     0.6982 C.3     
  10 O10           -5.8851    -1.3684     0.8418 O.3     
  11 C11           -5.0837    -2.0830    -0.1029 C.3     
  12 C12           -5.2032    -3.5856     0.1589 C.3     
  13 C13           -6.6763     0.7183     1.7732 C.3     
  14 C14            1.1586     2.2390     0.0184 C.ar    
  15 C15            2.2811     1.9467    -0.7640 C.ar    
  16 C16            1.1806     3.4031     0.8000 C.ar    
  17 C17            2.2988     4.2064     0.7740 C.ar    
  18 N18            3.3422     3.8953     0.0264 N.ar    
  19 C19            3.3639     2.8095    -0.7311 C.ar    
  20 C20            1.2660    -0.7691     0.4126 C.3     
  21 N21            1.6154    -0.7376     1.8391 N.3     
  22 C22            2.3321     5.4595     1.6104 C.3     
  23 O23            4.4620     2.5362    -1.4800 O.3     
  24 C24            5.5487     3.4608    -1.3995 C.3     
  25 H25           -3.0163    -2.1520    -0.7091 H       
  26 H26           -3.2629    -1.9236     1.0397 H       
  27 H27           -4.0131     0.2683     1.8618 H       
  28 H28           -4.2937     1.5802     0.6908 H       
  29 H29           -6.1792     0.3373    -0.2889 H       
  30 H30           -5.4269    -1.8605    -1.1133 H       
  31 H31           -6.2445    -3.8908     0.0559 H       
  32 H32           -4.5922    -4.1297    -0.5614 H       
  33 H33           -4.8579    -3.8070     1.1688 H       
  34 H34           -6.6191     1.8014     1.6656 H       
  35 H35           -7.7114     0.3960     1.6602 H       
  36 H36           -6.3121     0.4314     2.7597 H       
  37 H37            2.3030     1.0622    -1.3834 H       
  38 H38            0.3320     3.6663     1.4140 H       
  39 H39            1.1178    -1.8020     0.0975 H       
  40 H40            2.0732    -0.3241    -0.1692 H       
  41 H41            2.4640    -1.2544     2.0150 H       
  42 H42            1.6949     0.2119     2.1710 H       
  43 H43            2.7411     5.2289     2.5941 H       
  44 H44            2.9589     6.2057     1.1222 H       
  45 H45            1.3205     5.8502     1.7201 H       
  46 H46            5.9027     3.5166    -0.3701 H       
  47 H47            6.3601     3.1248    -2.0450 H       
  48 H48            5.2121     4.4461    -1.7219 H       
@<TRIPOS>BOND
   1    1    2 2
   2    1   14 1
   3    1    5 1
   4    2    3 1
   5    2   20 1
   6    3    4 2
   7    4    5 1
   8    4    6 1
   9    6    7 1
  10    6    8 1
  11    7   11 1
  12    7   25 1
  13    7   26 1
  14    8    9 1
  15    8   27 1
  16    8   28 1
  17    9   10 1
  18    9   13 1
  19    9   29 1
  20   10   11 1
  21   11   12 1
  22   11   30 1
  23   12   31 1
  24   12   32 1
  25   12   33 1
  26   13   34 1
  27   13   35 1
  28   13   36 1
  29   14   15 ar
  30   14   16 ar
  31   15   19 ar
  32   15   37 1
  33   16   17 ar
  34   16   38 1
  35   17   18 ar
  36   17   22 1
  37   18   19 ar
  38   19   23 1
  39   20   21 1
  40   20   39 1
  41   20   40 1
  42   21   41 1
  43   21   42 1
  44   22   43 1
  45   22   44 1
  46   22   45 1
  47   23   24 1
  48   24   46 1
  49   24   47 1
  50   24   48 1

#	End of record

