#	Name: ASD02030638
#	Creating user name:	WinNT
#	Creation time:	15. 06. 2019 20:15

#	Modifying user name:	WinNT
#	Modification time:	15. 06. 2019 20:15

#	Program:	/corina/corina34_cracker 3.40 0067  02.08.2006

@<TRIPOS>MOLECULE
ASD02030638
  65   68    0    0    0
SMALL
NO_CHARGES


@<TRIPOS>ATOM
   1 C1             0.1417     1.1602    -0.0874 C.ar    
   2 C2             0.0104    -0.2121    -0.0897 C.ar    
   3 C3             1.1439    -1.0102    -0.1516 C.ar    
   4 C4             2.3953    -0.4215    -0.2047 C.ar    
   5 C5             2.5256     0.9613    -0.1958 C.ar    
   6 C6             1.3977     1.7500    -0.1462 C.ar    
   7 C7             1.4659     3.2566    -0.1673 C.3     
   8 C8             3.9196     1.5305    -0.2269 C.3     
   9 C9             3.9037     2.9830    -0.7006 C.3     
  10 N10            2.8506     3.6916     0.0438 N.am    
  11 C11            0.9718     3.7697    -1.5214 C.3     
  12 O12            1.7221     3.1503    -2.5680 O.3     
  13 C13            1.4063     3.4993    -3.8438 C.ar    
  14 C14            3.1473     4.7004     0.8868 C.2     
  15 O15            4.3080     4.9930     1.1002 O.2     
  16 C16            2.0632     5.4502     1.5509 C.ar    
  17 C17            0.7632     4.2095    -6.4410 C.ar    
  18 C18            0.0785     4.7776    -5.3769 C.ar    
  19 C19            0.3993     4.4231    -4.0810 C.ar    
  20 C20            2.0951     2.9358    -4.9076 C.ar    
  21 C21            1.7744     3.2904    -6.2035 C.ar    
  22 C22            2.2346     5.9219     2.8550 C.ar    
  23 C23            0.8648     5.6951     0.8751 C.ar    
  24 C24           -0.1442     6.3950     1.4982 C.ar    
  25 C25            0.0282     6.8580     2.7974 C.ar    
  26 C26            1.2207     6.6210     3.4711 C.ar    
  27 O27            0.4474     4.5586    -7.7167 O.3     
  28 C28            1.1932     3.9342    -8.7636 C.3     
  29 O29            1.0257    -2.3641    -0.1597 O.3     
  30 C30           -0.2853    -2.9019     0.0250 C.3     
  31 C31           -0.9255    -3.1651    -1.3395 C.3     
  32 C32           -0.1928    -4.2140     0.8065 C.3     
  33 O33           -0.9683     7.5481     3.4078 O.3     
  34 C34           -0.7245     7.9948     4.7431 C.3     
  35 H35           -0.7402     1.7822    -0.0439 H       
  36 H36           -0.9695    -0.6637    -0.0432 H       
  37 H37            3.2777    -1.0423    -0.2531 H       
  38 H38            0.8345     3.6593     0.6248 H       
  39 H39            4.3479     1.4847     0.7744 H       
  40 H40            4.5334     0.9387    -0.9059 H       
  41 H41            4.8706     3.4458    -0.5028 H       
  42 H42            3.6879     3.0201    -1.7684 H       
  43 H43           -0.0843     3.5269    -1.6386 H       
  44 H44            1.1038     4.8506    -1.5704 H       
  45 H45           -0.7089     5.4933    -5.5618 H       
  46 H46           -0.1343     4.8649    -3.2524 H       
  47 H47            2.8826     2.2202    -4.7227 H       
  48 H48            2.3075     2.8480    -7.0321 H       
  49 H49            3.1608     5.7382     3.3791 H       
  50 H50            0.7304     5.3363    -0.1346 H       
  51 H51           -1.0707     6.5847     0.9766 H       
  52 H52            1.3524     6.9859     4.4790 H       
  53 H53            2.2507     4.1719    -8.6481 H       
  54 H54            1.0560     2.8540    -8.7131 H       
  55 H55            0.8417     4.3003    -9.7283 H       
  56 H56           -0.8951    -2.1900     0.5812 H       
  57 H57           -0.3156    -3.8771    -1.8957 H       
  58 H58           -1.9254    -3.5754    -1.1987 H       
  59 H59           -0.9913    -2.2303    -1.8963 H       
  60 H60            0.2632    -4.0266     1.7786 H       
  61 H61           -1.1928    -4.6243     0.9473 H       
  62 H62            0.4170    -4.9260     0.2503 H       
  63 H63           -0.5287     7.1350     5.3838 H       
  64 H64            0.1397     8.6589     4.7520 H       
  65 H65           -1.5988     8.5312     5.1120 H       
@<TRIPOS>BOND
   1    1    2 ar
   2    1    6 ar
   3    1   35 1
   4    2    3 ar
   5    2   36 1
   6    3    4 ar
   7    3   29 1
   8    4    5 ar
   9    4   37 1
  10    5    6 ar
  11    5    8 1
  12    6    7 1
  13    7   10 1
  14    7   11 1
  15    7   38 1
  16    8    9 1
  17    8   39 1
  18    8   40 1
  19    9   10 1
  20    9   41 1
  21    9   42 1
  22   10   14 am
  23   11   12 1
  24   11   43 1
  25   11   44 1
  26   12   13 1
  27   13   20 ar
  28   13   19 ar
  29   14   15 2
  30   14   16 1
  31   16   23 ar
  32   16   22 ar
  33   17   18 ar
  34   17   21 ar
  35   17   27 1
  36   18   19 ar
  37   18   45 1
  38   19   46 1
  39   20   21 ar
  40   20   47 1
  41   21   48 1
  42   22   26 ar
  43   22   49 1
  44   23   24 ar
  45   23   50 1
  46   24   25 ar
  47   24   51 1
  48   25   26 ar
  49   25   33 1
  50   26   52 1
  51   27   28 1
  52   28   53 1
  53   28   54 1
  54   28   55 1
  55   29   30 1
  56   30   31 1
  57   30   32 1
  58   30   56 1
  59   31   57 1
  60   31   58 1
  61   31   59 1
  62   32   60 1
  63   32   61 1
  64   32   62 1
  65   33   34 1
  66   34   63 1
  67   34   64 1
  68   34   65 1

#	End of record

