#	Name: ASD02508374
#	Creating user name:	WinNT
#	Creation time:	15. 06. 2019 20:24

#	Modifying user name:	WinNT
#	Modification time:	15. 06. 2019 20:24

#	Program:	/corina/corina34_cracker 3.40 0067  02.08.2006

@<TRIPOS>MOLECULE
ASD02508374
  44   46    0    0    0
SMALL
NO_CHARGES


@<TRIPOS>ATOM
   1 C1            -0.0180     1.3964    -0.1077 C.2     
   2 C2             0.0030     0.0053     0.1195 C.2     
   3 C3             1.2947    -0.3770     0.1726 C.2     
   4 N4             2.0750     0.7291    -0.0138 N.pl3   
   5 C5             1.2616     1.8136    -0.1852 C.2     
   6 C6             3.4729     0.7481    -0.0267 C.ar    
   7 C7             4.1564     1.6788     0.7484 C.ar    
   8 N8             4.1333    -0.1229    -0.7717 N.ar    
   9 C9             5.4518    -0.1398    -0.8126 C.ar    
  10 C10            6.1952     0.7586    -0.0728 C.ar    
  11 C11            5.5412     1.6860     0.7264 C.ar    
  12 S12            1.8763    -2.0191     0.4373 S.o2    
  13 O13            1.8547    -2.6616    -0.8299 O.2     
  14 O14            3.0492    -1.9062     1.2316 O.2     
  15 N15            0.7504    -2.7929     1.3733 N.am    
  16 C16           -0.5326    -3.0259     0.8729 C.ar    
  17 C17           -0.6979    -3.5133    -0.4160 C.ar    
  18 C18           -2.9139    -3.0056     1.1719 C.ar    
  19 C19           -1.6452    -2.7752     1.6670 C.ar    
  20 C20           -1.9729    -3.7432    -0.9090 C.ar    
  21 C21           -3.0804    -3.4856    -0.1135 C.ar    
  22 Cl22           3.2859     2.8161     1.7294 Cl      
  23 C23            7.7009     0.7287    -0.1283 C.3     
  24 F24            8.1156    -0.2902    -0.9926 F       
  25 F25            8.1748     1.9590    -0.5963 F       
  26 F26            8.2101     0.4896     1.1527 F       
  27 O27           -2.1383    -4.2200    -2.1707 O.3     
  28 C28           -3.4803    -4.4333    -2.6130 C.3     
  29 C29           -4.1188    -2.7330     2.0350 C.3     
  30 F30           -4.5384    -1.4118     1.8461 F       
  31 F31           -5.1532    -3.6059     1.6808 F       
  32 F32           -3.7835    -2.9282     3.3791 F       
  33 H33           -0.8983     2.0143    -0.2064 H       
  34 H34           -0.8582    -0.6369     0.2307 H       
  35 H35            1.5875     2.8293    -0.3539 H       
  36 H36            5.9565    -0.8661    -1.4324 H       
  37 H37            6.0992     2.3994     1.3146 H       
  38 H38            0.9820    -3.0844     2.2690 H       
  39 H39            0.1651    -3.7129    -1.0339 H       
  40 H40           -1.5178    -2.4004     2.6718 H       
  41 H41           -4.0737    -3.6651    -0.4976 H       
  42 H42           -3.4701    -4.8141    -3.6343 H       
  43 H43           -3.9672    -5.1576    -1.9600 H       
  44 H44           -4.0271    -3.4910    -2.5820 H       
@<TRIPOS>BOND
   1    1    2 1
   2    1    5 2
   3    1   33 1
   4    2    3 2
   5    2   34 1
   6    3    4 1
   7    3   12 1
   8    4    5 1
   9    4    6 1
  10    5   35 1
  11    6    7 ar
  12    6    8 ar
  13    7   22 1
  14    7   11 ar
  15    8    9 ar
  16    9   10 ar
  17    9   36 1
  18   10   11 ar
  19   10   23 1
  20   11   37 1
  21   12   13 2
  22   12   14 2
  23   12   15 am
  24   15   16 1
  25   15   38 1
  26   16   17 ar
  27   16   19 ar
  28   17   20 ar
  29   17   39 1
  30   18   19 ar
  31   18   29 1
  32   18   21 ar
  33   19   40 1
  34   20   21 ar
  35   20   27 1
  36   21   41 1
  37   23   24 1
  38   23   25 1
  39   23   26 1
  40   27   28 1
  41   28   42 1
  42   28   43 1
  43   28   44 1
  44   29   30 1
  45   29   31 1
  46   29   32 1

#	End of record

