#	Name: ASD01230521
#	Creating user name:	WinNT
#	Creation time:	15. 06. 2019 19:14

#	Modifying user name:	WinNT
#	Modification time:	15. 06. 2019 19:14

#	Program:	/corina/corina34_cracker 3.40 0067  02.08.2006

@<TRIPOS>MOLECULE
ASD01230521
  49   52    0    0    0
SMALL
NO_CHARGES


@<TRIPOS>ATOM
   1 S1            -1.6226     2.7535     1.5556 S.o2    
   2 N2            -1.3533     1.2768     0.8767 N.am    
   3 C3            -0.2285     0.8837     0.4277 C.2     
   4 N4             0.9275     1.6200     0.4827 N.pl3   
   5 C5             1.1079     2.6863     1.4615 C.3     
   6 C6            -0.0664     3.6629     1.3713 C.3     
   7 C7            -0.0964    -0.4895    -0.2108 C.3     
   8 C8             1.2811    -1.0382     0.1697 C.3     
   9 C9             2.3964    -0.1571    -0.3769 C.3     
  10 C10            1.9790     1.3041    -0.4899 C.3     
  11 C11           -1.1745    -1.4037     0.3116 C.ar    
  12 C12           -2.0846    -1.9680    -0.5632 C.ar    
  13 C13           -3.0741    -2.8059    -0.0868 C.ar    
  14 C14           -3.1541    -3.0815     1.2707 C.ar    
  15 C15           -2.2393    -2.5142     2.1464 C.ar    
  16 C16           -1.2485    -1.6811     1.6642 C.ar    
  17 O17           -4.1268    -3.9051     1.7419 O.3     
  18 C18           -4.9327    -4.5224     0.8387 C.ar    
  19 C19           -4.5703    -5.7532     0.3124 C.ar    
  20 C20           -5.3949    -6.3806    -0.6083 C.ar    
  21 C21           -6.5808    -5.7759    -1.0013 C.ar    
  22 C22           -6.9397    -4.5497    -0.4756 C.ar    
  23 C23           -6.1221    -3.9245     0.4465 C.ar    
  24 O24           -5.0422    -7.5865    -1.1262 O.3     
  25 C25           -5.9397    -8.1748    -2.0698 C.3     
  26 O26           -2.6334     3.3307     0.7404 O.2     
  27 O27           -1.8692     2.4657     2.9251 O.2     
  28 H28            1.1482     2.2576     2.4628 H       
  29 H29            2.0379     3.2159     1.2549 H       
  30 H30           -0.0500     4.1626     0.4027 H       
  31 H31            0.0168     4.4055     2.1649 H       
  32 H32           -0.1749    -0.4036    -1.2946 H       
  33 H33            1.3604    -1.0820     1.2559 H       
  34 H34            1.3893    -2.0441    -0.2361 H       
  35 H35            3.2589    -0.2277     0.2857 H       
  36 H36            2.6814    -0.5202    -1.3643 H       
  37 H37            1.6059     1.4941    -1.4963 H       
  38 H38            2.8441     1.9401    -0.3025 H       
  39 H39           -2.0219    -1.7532    -1.6197 H       
  40 H40           -3.7851    -3.2459    -0.7704 H       
  41 H41           -2.2993    -2.7271     3.2035 H       
  42 H42           -0.5336    -1.2428     2.3448 H       
  43 H43           -3.6470    -6.2220     0.6192 H       
  44 H44           -7.2234    -6.2642    -1.7190 H       
  45 H45           -7.8629    -4.0809    -0.7827 H       
  46 H46           -6.4068    -2.9679     0.8591 H       
  47 H47           -6.9106    -8.3306    -1.5995 H       
  48 H48           -6.0533    -7.5102    -2.9263 H       
  49 H49           -5.5398    -9.1323    -2.4035 H       
@<TRIPOS>BOND
   1    1    2 am
   2    1    6 1
   3    1   26 2
   4    1   27 2
   5    2    3 2
   6    3    4 1
   7    3    7 1
   8    4    5 1
   9    4   10 1
  10    5    6 1
  11    5   28 1
  12    5   29 1
  13    6   30 1
  14    6   31 1
  15    7    8 1
  16    7   11 1
  17    7   32 1
  18    8    9 1
  19    8   33 1
  20    8   34 1
  21    9   10 1
  22    9   35 1
  23    9   36 1
  24   10   37 1
  25   10   38 1
  26   11   12 ar
  27   11   16 ar
  28   12   13 ar
  29   12   39 1
  30   13   14 ar
  31   13   40 1
  32   14   15 ar
  33   14   17 1
  34   15   16 ar
  35   15   41 1
  36   16   42 1
  37   17   18 1
  38   18   19 ar
  39   18   23 ar
  40   19   20 ar
  41   19   43 1
  42   20   21 ar
  43   20   24 1
  44   21   22 ar
  45   21   44 1
  46   22   23 ar
  47   22   45 1
  48   23   46 1
  49   24   25 1
  50   25   47 1
  51   25   48 1
  52   25   49 1

#	End of record

