#	Name: ASD00451006
#	Creating user name:	WinNT
#	Creation time:	15. 06. 2019 18:36

#	Modifying user name:	WinNT
#	Modification time:	15. 06. 2019 18:36

#	Program:	/corina/corina34_cracker 3.40 0067  02.08.2006

@<TRIPOS>MOLECULE
ASD00451006
  51   55    0    0    0
SMALL
NO_CHARGES


@<TRIPOS>ATOM
   1 C1             0.0491     1.5088    -0.0822 C.ar    
   2 C2             0.1233     0.1342    -0.1166 C.ar    
   3 N3             1.2188     2.2760    -0.0717 N.am    
   4 C4            -1.2126     2.1398    -0.0635 C.ar    
   5 C5            -1.0317    -0.6426    -0.1284 C.ar    
   6 C6             2.3154     1.8240     0.5685 C.2     
   7 C7            -2.3872     1.3487    -0.0803 C.ar    
   8 C8            -2.2765    -0.0566    -0.1059 C.ar    
   9 O9             2.2597     0.7988     1.2199 O.2     
  10 N10            3.4735     2.5085     0.4867 N.am    
  11 O11           -3.3944    -0.8289    -0.1223 O.3     
  12 C12            4.5769     2.1111     1.2510 C.ar    
  13 C13           -3.2396    -2.1761    -0.0537 C.ar    
  14 C14            5.8635     2.4051     0.8202 C.ar    
  15 C15            4.3862     1.4271     2.4446 C.ar    
  16 C16           -3.0155    -2.8100     1.1661 C.ar    
  17 C17           -3.3062    -2.9641    -1.2007 C.ar    
  18 C18            6.9506     2.0123     1.5765 C.ar    
  19 C19            5.4762     1.0366     3.1970 C.ar    
  20 N20           -2.8968    -2.3569     2.4784 N.am    
  21 C21           -2.8612    -4.1961     1.1977 C.ar    
  22 C22           -3.1437    -4.3305    -1.0907 C.ar    
  23 C23            6.7580     1.3260     2.7624 C.ar    
  24 C24           -2.6796    -3.4232     3.2720 C.2     
  25 N25           -2.6484    -4.5431     2.5260 N.am    
  26 N26           -2.9271    -4.9020     0.0788 N.ar    
  27 Cl27           8.1263     0.8327     3.7100 Cl      
  28 O28           -2.5275    -3.3799     4.4786 O.2     
  29 H29            1.2408     3.1331    -0.5252 H       
  30 H30            3.5425     3.2764    -0.1019 H       
  31 H31           -2.9594    -1.4338     2.7697 H       
  32 H32           -2.5073    -5.4426     2.8606 H       
  33 C33           -1.3251     3.5391    -0.0288 C.ar    
  34 C34           -2.5581     4.1161    -0.0119 C.ar    
  35 C35           -3.7138     3.3378    -0.0285 C.ar    
  36 C36           -3.6423     1.9787    -0.0621 C.ar    
  37 C37            8.3474     2.3312     1.1094 C.3     
  38 F38            8.2865     3.0237    -0.1046 F       
  39 F39            8.9897     3.1237     2.0668 F       
  40 F40            9.0628     1.1420     0.9325 F       
  41 H41            1.0899    -0.3473    -0.1351 H       
  42 H42           -0.9498    -1.7191    -0.1558 H       
  43 H43            6.0144     2.9402    -0.1058 H       
  44 H44            3.3862     1.2010     2.7842 H       
  45 H45           -3.4832    -2.5110    -2.1650 H       
  46 H46            5.3285     0.5050     4.1254 H       
  47 H47           -3.1953    -4.9433    -1.9784 H       
  48 H48           -0.4378     4.1546    -0.0153 H       
  49 H49           -2.6417     5.1925     0.0150 H       
  50 H50           -4.6803     3.8197    -0.0142 H       
  51 H51           -4.5463     1.3879    -0.0746 H       
@<TRIPOS>BOND
   1    1    2 ar
   2    1    3 1
   3    1    4 ar
   4    2    5 ar
   5    2   41 1
   6    3   29 1
   7    3    6 am
   8    4   33 ar
   9    4    7 ar
  10    5    8 ar
  11    5   42 1
  12    6    9 2
  13    6   10 am
  14    7    8 ar
  15    7   36 ar
  16    8   11 1
  17   10   12 1
  18   10   30 1
  19   11   13 1
  20   12   14 ar
  21   12   15 ar
  22   13   16 ar
  23   13   17 ar
  24   14   18 ar
  25   14   43 1
  26   15   19 ar
  27   15   44 1
  28   16   20 1
  29   16   21 ar
  30   17   22 ar
  31   17   45 1
  32   18   23 ar
  33   18   37 1
  34   19   23 ar
  35   19   46 1
  36   20   31 1
  37   20   24 am
  38   21   26 ar
  39   21   25 1
  40   22   26 ar
  41   22   47 1
  42   23   27 1
  43   24   25 am
  44   24   28 2
  45   25   32 1
  46   33   34 ar
  47   33   48 1
  48   34   35 ar
  49   34   49 1
  50   35   36 ar
  51   35   50 1
  52   36   51 1
  53   37   38 1
  54   37   39 1
  55   37   40 1

#	End of record

