#	Name: ASD01230688
#	Creating user name:	WinNT
#	Creation time:	15. 06. 2019 19:14

#	Modifying user name:	WinNT
#	Modification time:	15. 06. 2019 19:14

#	Program:	/corina/corina34_cracker 3.40 0067  02.08.2006

@<TRIPOS>MOLECULE
ASD01230688
  45   48    0    0    0
SMALL
NO_CHARGES


@<TRIPOS>ATOM
   1 C1             0.5814     0.8332    -0.0453 C.3     
   2 C2             1.0430    -0.6035     0.2137 C.3     
   3 C3            -0.1171    -1.5831     0.1065 C.3     
   4 C4            -1.4571    -0.9466     0.4485 C.3     
   5 N5            -1.2935     0.1707     1.3813 N.pl3   
   6 C6            -0.4322     1.1784     1.0323 C.2     
   7 C7            -2.0033     0.1846     2.6579 C.3     
   8 C8            -2.7476     1.5118     2.8130 C.3     
   9 S9            -1.5787     2.8824     2.6160 S.o2    
  10 N10           -0.4655     2.3549     1.5228 N.am    
  11 C11            1.7568     1.7727     0.0353 C.ar    
  12 C12            2.4854     1.8688     1.2068 C.ar    
  13 C13            3.5643     2.7298     1.2841 C.ar    
  14 C14            3.9171     3.4970     0.1907 C.ar    
  15 C15            3.1879     3.4025    -0.9858 C.ar    
  16 C16            2.1090     2.5330    -1.0627 C.ar    
  17 C17            2.1045     5.8587    -1.2119 C.ar    
  18 C18            1.5076     7.0958    -1.3584 C.ar    
  19 C19            1.7453     7.8496    -2.4929 C.ar    
  20 C20            2.5808     7.3675    -3.4836 C.ar    
  21 C21            3.1810     6.1315    -3.3417 C.ar    
  22 C22            2.9437     5.3728    -2.2044 C.ar    
  23 O23           -2.2068     3.9807     1.9692 O.2     
  24 O24           -0.8306     3.0715     3.8093 O.2     
  25 O25            3.5325     4.1564    -2.0626 O.3     
  26 H26            0.1174     0.9026    -1.0292 H       
  27 H27            1.8052    -0.8712    -0.5181 H       
  28 H28            1.4720    -0.6660     1.2138 H       
  29 H29           -0.1600    -1.9676    -0.9125 H       
  30 H30            0.0611    -2.4155     0.7873 H       
  31 H31           -1.9229    -0.5819    -0.4670 H       
  32 H32           -2.1037    -1.6980     0.9017 H       
  33 H33           -2.7179    -0.6381     2.6853 H       
  34 H34           -1.2880     0.0718     3.4726 H       
  35 H35           -3.5246     1.5842     2.0520 H       
  36 H36           -3.2018     1.5605     3.8027 H       
  37 H37            2.2108     1.2704     2.0630 H       
  38 H38            4.1317     2.8029     2.2002 H       
  39 H39            4.7596     4.1699     0.2518 H       
  40 H40            1.5397     2.4576    -1.9773 H       
  41 H41            1.9216     5.2722    -0.3237 H       
  42 H42            0.8543     7.4745    -0.5862 H       
  43 H43            1.2774     8.8164    -2.6057 H       
  44 H44            2.7643     7.9579    -4.3692 H       
  45 H45            3.8332     5.7552    -4.1160 H       
@<TRIPOS>BOND
   1    1    2 1
   2    1   11 1
   3    1    6 1
   4    1   26 1
   5    2    3 1
   6    2   27 1
   7    2   28 1
   8    3    4 1
   9    3   29 1
  10    3   30 1
  11    4    5 1
  12    4   31 1
  13    4   32 1
  14    5    6 1
  15    5    7 1
  16    6   10 2
  17    7    8 1
  18    7   33 1
  19    7   34 1
  20    8    9 1
  21    8   35 1
  22    8   36 1
  23    9   10 am
  24    9   23 2
  25    9   24 2
  26   11   12 ar
  27   11   16 ar
  28   12   13 ar
  29   12   37 1
  30   13   14 ar
  31   13   38 1
  32   14   15 ar
  33   14   39 1
  34   15   16 ar
  35   15   25 1
  36   16   40 1
  37   17   18 ar
  38   17   22 ar
  39   17   41 1
  40   18   19 ar
  41   18   42 1
  42   19   20 ar
  43   19   43 1
  44   20   21 ar
  45   20   44 1
  46   21   22 ar
  47   21   45 1
  48   22   25 1

#	End of record

