#	Name: ASD03200093
#	Creating user name:	WinNT
#	Creation time:	15. 06. 2019 20:34

#	Modifying user name:	WinNT
#	Modification time:	15. 06. 2019 20:34

#	Program:	/corina/corina34_cracker 3.40 0067  02.08.2006

@<TRIPOS>MOLECULE
ASD03200093
  22   22    0    0    0
SMALL
NO_CHARGES


@<TRIPOS>ATOM
   1 C1            -0.0218     1.7561     0.0117 C.2     
   2 C2            -1.0597     3.8909     0.0377 C.2     
   3 C3            -1.9753     6.0949     0.0624 C.3     
   4 C4             1.7624     0.0074    -0.0147 C.2     
   5 C5             4.4651    -0.7190    -0.0454 C.3     
   6 C6             5.4940    -1.8512    -0.0621 C.3     
   7 S7             2.7928    -1.4217    -0.0331 S.3     
   8 N8             2.1802     1.2356    -0.0121 N.2     
   9 N9             1.1954     2.1989     0.0025 N.2     
  10 S10            0.0021    -0.0041     0.0020 S.3     
  11 N11           -1.1682     2.5475     0.0321 N.am    
  12 O12            0.0381     4.4118     0.0249 O.2     
  13 O13           -2.1677     4.6557     0.0575 O.3     
  14 H14           -1.4053     6.3822     0.9459 H       
  15 H15           -1.4304     6.3917    -0.8338 H       
  16 H16           -2.9456     6.5912     0.0787 H       
  17 H17            4.6097    -0.1097     0.8468 H       
  18 H18            4.5923    -0.0993    -0.9331 H       
  19 H19            5.3668    -2.4708     0.8256 H       
  20 H20            5.3494    -2.4605    -0.9542 H       
  21 H21            6.4989    -1.4289    -0.0695 H       
  22 H22           -2.0445     2.1316     0.0423 H       
@<TRIPOS>BOND
   1    1   10 1
   2    1    9 2
   3    1   11 1
   4    2   12 2
   5    2   11 am
   6    2   13 1
   7    3   14 1
   8    3   15 1
   9    3   16 1
  10    3   13 1
  11    4    7 1
  12    4    8 2
  13    4   10 1
  14    5    7 1
  15    5    6 1
  16    5   17 1
  17    5   18 1
  18    6   19 1
  19    6   20 1
  20    6   21 1
  21    8    9 1
  22   11   22 1

#	End of record

