#	Name: ASD07300213
#	Creating user name:	WinNT
#	Creation time:	15. 06. 2019 21:09

#	Modifying user name:	WinNT
#	Modification time:	15. 06. 2019 21:09

#	Program:	/corina/corina34_cracker 3.40 0067  02.08.2006

@<TRIPOS>MOLECULE
ASD07300213
  57   61    0    0    0
SMALL
NO_CHARGES


@<TRIPOS>ATOM
   1 C1            -0.8593     0.9898    -0.1290 C.ar    
   2 C2            -1.0224    -0.3809    -0.3520 C.ar    
   3 C3             0.0629    -1.2295    -0.1925 C.ar    
   4 C4             1.2779    -0.6768     0.1857 C.ar    
   5 C5             1.3673     0.6874     0.3894 C.ar    
   6 N6             0.3188     1.4718     0.2306 N.ar    
   7 C7            -2.9733     0.6168    -0.6996 C.2     
   8 N8            -2.0978     1.5795    -0.3555 N.am    
   9 N9            -2.3523    -0.5781    -0.7118 N.am    
  10 O10           -4.1470     0.7991    -0.9638 O.2     
  11 C11           -2.9719    -1.8647    -1.0387 C.3     
  12 C12           -3.5356    -2.4975     0.2352 C.3     
  13 C13           -2.3866     2.9476    -0.2434 C.ar    
  14 C14           -3.6708     3.4094    -0.4983 C.ar    
  15 C15           -3.9547     4.7561    -0.3874 C.ar    
  16 C16           -2.9568     5.6478    -0.0213 C.ar    
  17 C17           -1.6733     5.1868     0.2336 C.ar    
  18 C18           -1.3897     3.8396     0.1281 C.ar    
  19 O19           -3.2368     6.9738     0.0874 O.3     
  20 C20           -3.9132     7.3925     1.1815 C.2     
  21 N21           -4.2407     6.6360     2.1967 N.2     
  22 C22           -4.9115     7.3750     3.1189 C.ar    
  23 C23           -4.9944     8.6846     2.6168 C.ar    
  24 N24           -4.3497     8.6678     1.3918 N.pl3   
  25 C25           -5.4764     7.0780     4.3613 C.ar    
  26 C26           -6.1073     8.0687     5.0801 C.ar    
  27 C27           -6.1868     9.3596     4.5797 C.ar    
  28 C28           -5.6339     9.6694     3.3541 C.ar    
  29 C29           -4.1722     9.8069     0.4879 C.3     
  30 C30           -5.3588     9.8837    -0.4749 C.3     
  31 C31           -5.1734    11.0733    -1.4190 C.3     
  32 C32           -6.3600    11.1501    -2.3818 C.3     
  33 H33           -0.0353    -2.2922    -0.3580 H       
  34 H34            2.1452    -1.3063     0.3200 H       
  35 H35            2.3126     1.1187     0.6838 H       
  36 H36           -3.7789    -1.7080    -1.7543 H       
  37 H37           -2.2242    -2.5280    -1.4737 H       
  38 H38           -3.9966    -3.4549    -0.0080 H       
  39 H39           -2.7285    -2.6543     0.9509 H       
  40 H40           -4.2832    -1.8343     0.6702 H       
  41 H41           -4.4476     2.7154    -0.7837 H       
  42 H42           -4.9536     5.1154    -0.5860 H       
  43 H43           -0.8968     5.8813     0.5186 H       
  44 H44           -0.3915     3.4803     0.3305 H       
  45 H45           -5.4188     6.0746     4.7568 H       
  46 H46           -6.5439     7.8385     6.0408 H       
  47 H47           -6.6850    10.1274     5.1529 H       
  48 H48           -5.6987    10.6768     2.9702 H       
  49 H49           -4.1162    10.7270     1.0696 H       
  50 H50           -3.2508     9.6797    -0.0804 H       
  51 H51           -5.4148     8.9635    -1.0566 H       
  52 H52           -6.2802    10.0109     0.0934 H       
  53 H53           -5.1174    11.9934    -0.8373 H       
  54 H54           -4.2520    10.9461    -1.9873 H       
  55 H55           -6.4160    10.2299    -2.9634 H       
  56 H56           -7.2814    11.2773    -1.8135 H       
  57 H57           -6.2280    11.9976    -3.0543 H       
@<TRIPOS>BOND
   1    1    2 ar
   2    1    6 ar
   3    1    8 1
   4    2    3 ar
   5    2    9 1
   6    3    4 ar
   7    3   33 1
   8    4    5 ar
   9    4   34 1
  10    5    6 ar
  11    5   35 1
  12    7    8 am
  13    7    9 am
  14    7   10 2
  15    8   13 1
  16    9   11 1
  17   11   12 1
  18   11   36 1
  19   11   37 1
  20   12   38 1
  21   12   39 1
  22   12   40 1
  23   13   14 ar
  24   13   18 ar
  25   14   15 ar
  26   14   41 1
  27   15   16 ar
  28   15   42 1
  29   16   17 ar
  30   16   19 1
  31   17   18 ar
  32   17   43 1
  33   18   44 1
  34   19   20 1
  35   20   21 2
  36   20   24 1
  37   21   22 1
  38   22   23 ar
  39   22   25 ar
  40   23   24 1
  41   23   28 ar
  42   24   29 1
  43   25   26 ar
  44   25   45 1
  45   26   27 ar
  46   26   46 1
  47   27   28 ar
  48   27   47 1
  49   28   48 1
  50   29   30 1
  51   29   49 1
  52   29   50 1
  53   30   31 1
  54   30   51 1
  55   30   52 1
  56   31   32 1
  57   31   53 1
  58   31   54 1
  59   32   55 1
  60   32   56 1
  61   32   57 1

#	End of record

