#	Name: ASD02039231
#	Creating user name:	WinNT
#	Creation time:	15. 06. 2019 20:17

#	Modifying user name:	WinNT
#	Modification time:	15. 06. 2019 20:17

#	Program:	/corina/corina34_cracker 3.40 0067  02.08.2006

@<TRIPOS>MOLECULE
ASD02039231
  39   42    0    0    0
SMALL
NO_CHARGES


@<TRIPOS>ATOM
   1 N1             0.0027     1.2566     0.3781 N.2     
   2 C2             0.0063    -0.0137     0.0898 C.2     
   3 S3             1.6824    -0.4973    -0.1782 S.3     
   4 C4             2.1782     1.1640     0.1516 C.2     
   5 N5             1.1137     1.8524     0.4082 N.2     
   6 N6            -1.1069    -0.8381     0.0088 N.pl3   
   7 C7            -2.3894    -0.2949     0.1298 C.ar    
   8 C8            -2.6310     1.0141    -0.2674 C.ar    
   9 C9            -3.8989     1.5479    -0.1472 C.ar    
  10 C10           -4.9283     0.7802     0.3688 C.ar    
  11 C11           -4.6905    -0.5241     0.7653 C.ar    
  12 C12           -3.4258    -1.0650     0.6421 C.ar    
  13 Cl13          -6.5207     1.4550     0.5195 Cl      
  14 C14            3.5912     1.6876     0.1373 C.3     
  15 O15            4.1610     1.5567     1.4412 O.3     
  16 C16            5.4411     1.9858     1.6014 C.ar    
  17 C17            6.1325     2.5230     0.5184 C.ar    
  18 C18            7.4299     2.9633     0.6622 C.ar    
  19 C19            8.0611     2.8732     1.8981 C.ar    
  20 C20            7.3659     2.3308     2.9955 C.ar    
  21 C21            6.0474     1.8921     2.8382 C.ar    
  22 N22            9.3607     3.3078     2.0623 N.am    
  23 C23            9.9734     3.2209     3.2559 C.2     
  24 C24            9.3205     2.6850     4.3864 C.2     
  25 C25            8.0429     2.2410     4.2907 C.2     
  26 O26           11.1219     3.6146     3.3641 O.2     
  27 H27           -0.9952    -1.7914    -0.1317 H       
  28 H28           -1.8279     1.6139    -0.6695 H       
  29 H29           -4.0873     2.5656    -0.4559 H       
  30 H30           -5.4957    -1.1210     1.1677 H       
  31 H31           -3.2409    -2.0831     0.9513 H       
  32 H32            4.1834     1.1157    -0.5771 H       
  33 H33            3.5865     2.7382    -0.1533 H       
  34 H34            5.6469     2.5949    -0.4436 H       
  35 H35            7.9567     3.3779    -0.1845 H       
  36 H36            5.5094     1.4755     3.6770 H       
  37 H37            9.8391     3.6811     1.3056 H       
  38 H38            9.8403     2.6285     5.3314 H       
  39 H39            7.5357     1.8301     5.1511 H       
@<TRIPOS>BOND
   1    1    2 2
   2    1    5 1
   3    2    3 1
   4    2    6 1
   5    3    4 1
   6    4    5 2
   7    4   14 1
   8    6    7 1
   9    6   27 1
  10    7    8 ar
  11    7   12 ar
  12    8    9 ar
  13    8   28 1
  14    9   10 ar
  15    9   29 1
  16   10   11 ar
  17   10   13 1
  18   11   12 ar
  19   11   30 1
  20   12   31 1
  21   14   15 1
  22   14   32 1
  23   14   33 1
  24   15   16 1
  25   16   17 ar
  26   16   21 ar
  27   17   18 ar
  28   17   34 1
  29   18   19 ar
  30   18   35 1
  31   19   20 ar
  32   19   22 1
  33   20   21 ar
  34   20   25 1
  35   21   36 1
  36   22   23 am
  37   22   37 1
  38   23   24 1
  39   23   26 2
  40   24   25 2
  41   24   38 1
  42   25   39 1

#	End of record

