#	Name: ASD01000153
#	Creating user name:	WinNT
#	Creation time:	15. 06. 2019 18:54

#	Modifying user name:	WinNT
#	Modification time:	15. 06. 2019 18:54

#	Program:	/corina/corina34_cracker 3.40 0067  02.08.2006

@<TRIPOS>MOLECULE
ASD01000153
  61   65    0    0    0
SMALL
NO_CHARGES


@<TRIPOS>ATOM
   1 C1             0.0844     1.4277    -0.2944 C.ar    
   2 C2            -2.4906    -0.3681    -0.2836 C.ar    
   3 C3            -0.0107    -0.0183     0.0010 C.3     
   4 C4             0.7131     4.0512    -0.9590 C.ar    
   5 C5            -0.5830     3.6142    -0.8779 C.ar    
   6 C6            -0.9059     2.2882    -0.5054 C.ar    
   7 C7             1.4229     1.8726    -0.3518 C.ar    
   8 C8             1.7389     3.1680    -0.6740 C.ar    
   9 C9            -3.5842    -1.2383    -0.0570 C.ar    
  10 C10           -3.4138    -2.5118     0.4183 C.ar    
  11 C11           -2.1348    -2.9655     0.6860 C.ar    
  12 C12           -1.0789    -2.1114     0.4887 C.ar    
  13 C13           -1.2713    -0.7933     0.0236 C.ar    
  14 C14            0.8952    -0.7120    -0.9835 C.ar    
  15 C15            0.6627    -0.5856    -2.3412 C.ar    
  16 C16            1.4892    -1.2187    -3.2473 C.ar    
  17 C17            2.5596    -1.9859    -2.7921 C.ar    
  18 C18            2.7894    -2.1094    -1.4234 C.ar    
  19 C19            1.9594    -1.4680    -0.5263 C.ar    
  20 S20            0.7631    -0.2588     1.6240 S.3     
  21 C21           -0.3421     0.6473     2.7412 C.3     
  22 C22            0.1002     0.4231     4.1887 C.3     
  23 C23           -0.8179     1.1759     5.1168 C.2     
  24 N24            0.0441    -1.0111     4.5013 N.3     
  25 O25           -0.6488     2.4942     5.3046 O.3     
  26 O26           -1.7062     0.5927     5.6919 O.2     
  27 C27           -2.4069     2.1638    -0.3491 C.3     
  28 C28           -2.9940     0.9101    -0.9171 C.3     
  29 C29            3.4513    -2.6694    -3.7616 C.ar    
  30 C30            4.0571    -3.1795    -6.0276 C.ar    
  31 C31            3.2246    -2.5416    -5.1304 C.ar    
  32 C32            4.5217    -3.4366    -3.3064 C.ar    
  33 C33            5.3478    -4.0701    -4.2125 C.ar    
  34 C34            5.1151    -3.9441    -5.5702 C.ar    
  35 H35            0.9308     5.0706    -1.2415 H       
  36 H36           -1.3828     4.3035    -1.1052 H       
  37 H37            2.2187     1.1750    -0.1362 H       
  38 H38            2.7687     3.4921    -0.7042 H       
  39 H39           -4.5841    -0.8870    -0.2649 H       
  40 H40           -4.2671    -3.1532     0.5821 H       
  41 H41           -1.9706    -3.9713     1.0435 H       
  42 H42           -0.0765    -2.4565     0.6947 H       
  43 H43           -0.1672     0.0093    -2.6928 H       
  44 H44            1.3064    -1.1200    -4.3071 H       
  45 H45            3.6174    -2.7032    -1.0652 H       
  46 H46            2.1390    -1.5597     0.5347 H       
  47 H47           -0.3005     1.7115     2.5093 H       
  48 H48           -1.3629     0.2872     2.6134 H       
  49 H49            1.1211     0.7832     4.3165 H       
  50 H50           -0.8927    -1.3691     4.3902 H       
  51 H51            0.6990    -1.5303     3.9359 H       
  52 H52           -1.2623     2.9337     5.9092 H       
  53 H53           -2.6474     2.2064     0.7132 H       
  54 H54           -2.8762     3.0169    -0.8390 H       
  55 H55           -2.7707     0.8774    -1.9835 H       
  56 H56           -4.0766     0.9513    -0.7969 H       
  57 H57            3.8823    -3.0812    -7.0889 H       
  58 H58            2.3988    -1.9448    -5.4887 H       
  59 H59            4.7047    -3.5350    -2.2466 H       
  60 H60            6.1778    -4.6650    -3.8608 H       
  61 H61            5.7640    -4.4416    -6.2757 H       
@<TRIPOS>BOND
   1    1    3 1
   2    1    7 ar
   3    1    6 ar
   4    2    9 ar
   5    2   13 ar
   6    2   28 1
   7    3   14 1
   8    3   20 1
   9    3   13 1
  10    4    5 ar
  11    4    8 ar
  12    4   35 1
  13    5    6 ar
  14    5   36 1
  15    6   27 1
  16    7    8 ar
  17    7   37 1
  18    8   38 1
  19    9   10 ar
  20    9   39 1
  21   10   11 ar
  22   10   40 1
  23   11   12 ar
  24   11   41 1
  25   12   13 ar
  26   12   42 1
  27   14   15 ar
  28   14   19 ar
  29   15   16 ar
  30   15   43 1
  31   16   17 ar
  32   16   44 1
  33   17   18 ar
  34   17   29 1
  35   18   19 ar
  36   18   45 1
  37   19   46 1
  38   20   21 1
  39   21   22 1
  40   21   47 1
  41   21   48 1
  42   22   23 1
  43   22   24 1
  44   22   49 1
  45   23   25 1
  46   23   26 2
  47   24   50 1
  48   24   51 1
  49   25   52 1
  50   27   28 1
  51   27   53 1
  52   27   54 1
  53   28   55 1
  54   28   56 1
  55   29   32 ar
  56   29   31 ar
  57   30   31 ar
  58   30   34 ar
  59   30   57 1
  60   31   58 1
  61   32   33 ar
  62   32   59 1
  63   33   34 ar
  64   33   60 1
  65   34   61 1

#	End of record

