#	Name: ASD01142001
#	Creating user name:	WinNT
#	Creation time:	15. 06. 2019 19:01

#	Modifying user name:	WinNT
#	Modification time:	15. 06. 2019 19:01

#	Program:	/corina/corina34_cracker 3.40 0067  02.08.2006

@<TRIPOS>MOLECULE
ASD01142001
  42   46    0    0    0
SMALL
NO_CHARGES


@<TRIPOS>ATOM
   1 C1            -0.0167     1.3838     0.0097 C.ar    
   2 C2             0.0021    -0.0041     0.0020 C.ar    
   3 C3             1.2030    -0.6958    -0.0126 C.ar    
   4 C4             2.4204     0.0245    -0.0203 C.ar    
   5 C5             2.3789     1.4380    -0.0129 C.ar    
   6 C6             1.1444     2.1009     0.0024 C.ar    
   7 N7             3.5945    -0.6173    -0.0340 N.ar    
   8 C8             4.7353     0.0230    -0.0409 C.ar    
   9 C9             4.7913     1.4273    -0.0345 C.ar    
  10 C10            3.5971     2.1612    -0.0207 C.ar    
  11 N11            3.6077     3.5380    -0.0143 N.pl3   
  12 C12            1.2117    -2.1761    -0.0197 C.ar    
  13 N13            0.0575    -2.8309    -0.0119 N.ar    
  14 C14            0.0307    -4.1524    -0.0183 C.ar    
  15 C15            1.2273    -4.8536    -0.0334 C.ar    
  16 C16            2.4157    -4.1383    -0.0413 C.ar    
  17 N17            2.3734    -2.8173    -0.0393 N.ar    
  18 C18            6.1703    -0.4509    -0.0560 C.3     
  19 N19            7.0019     0.7573    -0.0575 N.am    
  20 C20            6.2015     1.8366    -0.0451 C.2     
  21 O21            6.5900     2.9891    -0.0433 O.2     
  22 C22            8.4666     0.7832    -0.0697 C.3     
  23 C23            9.0598     1.5041    -1.2917 C.3     
  24 C24           10.1037     2.1019    -0.3338 C.3     
  25 C25            9.0700     1.9079     0.7881 C.3     
  26 H26           -0.9635     1.9035     0.0169 H       
  27 H27           -0.9292    -0.5509     0.0079 H       
  28 H28            1.1118     3.1804     0.0081 H       
  29 H29            4.4514     4.0166    -0.0195 H       
  30 H30            2.7714     4.0294    -0.0047 H       
  31 H31           -0.9117    -4.6798    -0.0115 H       
  32 H32            1.2337    -5.9336    -0.0386 H       
  33 H33            3.3642    -4.6546    -0.0531 H       
  34 H34            6.3773    -1.0469     0.8328 H       
  35 H35            6.3614    -1.0382    -0.9542 H       
  36 H36            8.9088    -0.1954     0.1172 H       
  37 H37            9.4847     0.8280    -2.0337 H       
  38 H38            8.3914     2.2466    -1.7277 H       
  39 H39           10.9945     1.4845    -0.2182 H       
  40 H40           10.3356     3.1472    -0.5379 H       
  41 H41            8.4043     2.7608     0.9208 H       
  42 H42            9.5030     1.5579     1.7251 H       
@<TRIPOS>BOND
   1    1    2 ar
   2    1    6 ar
   3    1   26 1
   4    2    3 ar
   5    2   27 1
   6    3    4 ar
   7    3   12 1
   8    4    5 ar
   9    4    7 ar
  10    5    6 ar
  11    5   10 ar
  12    6   28 1
  13    7    8 ar
  14    8    9 ar
  15    8   18 1
  16    9   10 ar
  17    9   20 1
  18   10   11 1
  19   11   29 1
  20   11   30 1
  21   12   13 ar
  22   12   17 ar
  23   13   14 ar
  24   14   15 ar
  25   14   31 1
  26   15   16 ar
  27   15   32 1
  28   16   17 ar
  29   16   33 1
  30   18   19 1
  31   18   34 1
  32   18   35 1
  33   19   20 am
  34   19   22 1
  35   20   21 2
  36   22   23 1
  37   22   25 1
  38   22   36 1
  39   23   24 1
  40   23   37 1
  41   23   38 1
  42   24   25 1
  43   24   39 1
  44   24   40 1
  45   25   41 1
  46   25   42 1

#	End of record

