#	Name: ASD03910009
#	Creating user name:	WinNT
#	Creation time:	15. 06. 2019 20:47

#	Modifying user name:	WinNT
#	Modification time:	15. 06. 2019 20:47

#	Program:	/corina/corina34_cracker 3.40 0067  02.08.2006

@<TRIPOS>MOLECULE
ASD03910009
  54   55    0    0    0
SMALL
NO_CHARGES


@<TRIPOS>ATOM
   1 C1            -0.2079    -0.2751    -0.3190 C.ar    
   2 C2             0.8076     0.2969     0.4252 C.ar    
   3 C3             0.5663     1.4387     1.1670 C.ar    
   4 C4            -0.6906     2.0112     1.1670 C.ar    
   5 C5            -1.7125     1.4392     0.4207 C.ar    
   6 C6            -1.4654     0.2960    -0.3280 C.ar    
   7 N7            -2.9870     2.0168     0.4187 N.am    
   8 C8             1.6759     2.0588     1.9765 C.3     
   9 C9            -3.1195     3.3572     0.4652 C.2     
  10 C10           -4.4867     3.9831     0.3654 C.3     
  11 O11           -2.1384     4.0597     0.5873 O.2     
  12 C12           -4.3595     5.4827     0.4431 C.ar    
  13 C13           -4.1904     6.2218    -0.7131 C.ar    
  14 C14           -4.0736     7.5966    -0.6446 C.ar    
  15 C15           -4.1261     8.2356     0.5857 C.ar    
  16 C16           -4.2959     7.4917     1.7444 C.ar    
  17 C17           -4.4179     6.1177     1.6700 C.ar    
  18 O18           -4.0109     9.5879     0.6558 O.3     
  19 C19           -4.1832    10.1879     1.9413 C.3     
  20 C20           -3.1367     9.6579     2.8873 C.2     
  21 O21           -2.3265     8.8493     2.5004 O.2     
  22 O22           -3.1046    10.0841     4.1597 O.3     
  23 C23            0.0595    -1.5194    -1.1260 C.3     
  24 C24           -4.0382    11.7061     1.8190 C.3     
  25 C25           -5.5750     9.8502     2.4793 C.3     
  26 C26           -2.0693     9.5309     5.0143 C.3     
  27 C27           -2.1911    10.1307     6.4166 C.3     
  28 H28            1.7911    -0.1493     0.4273 H       
  29 H29           -0.8785     2.9026     1.7471 H       
  30 H30           -2.2579    -0.1510    -0.9098 H       
  31 H31           -3.7751     1.4524     0.3837 H       
  32 H32            2.2078     2.7880     1.3654 H       
  33 H33            1.2542     2.5556     2.8503 H       
  34 H34            2.3682     1.2813     2.2995 H       
  35 H35           -4.9448     3.7060    -0.5840 H       
  36 H36           -5.1096     3.6283     1.1866 H       
  37 H37           -4.1492     5.7239    -1.6706 H       
  38 H38           -3.9411     8.1735    -1.5480 H       
  39 H39           -4.3371     7.9868     2.7033 H       
  40 H40           -4.5501     5.5381     2.5717 H       
  41 H41           -0.1405    -2.3991    -0.5142 H       
  42 H42           -0.5893    -1.5309    -2.0018 H       
  43 H43            1.1015    -1.5283    -1.4456 H       
  44 H44           -4.8468    12.0999     1.2032 H       
  45 H45           -4.0841    12.1565     2.8105 H       
  46 H46           -3.0803    11.9435     1.3561 H       
  47 H47           -5.7278     8.7716     2.4405 H       
  48 H48           -5.6585    10.1920     3.5110 H       
  49 H49           -6.3304    10.3463     1.8699 H       
  50 H50           -2.1848     8.4485     5.0708 H       
  51 H51           -1.0899     9.7707     4.6004 H       
  52 H52           -2.0756    11.2131     6.3601 H       
  53 H53           -3.1705     9.8909     6.8305 H       
  54 H54           -1.4139     9.7154     7.0582 H       
@<TRIPOS>BOND
   1    1    2 ar
   2    1   23 1
   3    1    6 ar
   4    2    3 ar
   5    2   28 1
   6    3    4 ar
   7    3    8 1
   8    4    5 ar
   9    4   29 1
  10    5    6 ar
  11    5    7 1
  12    6   30 1
  13    7    9 am
  14    7   31 1
  15    8   32 1
  16    8   33 1
  17    8   34 1
  18    9   10 1
  19    9   11 2
  20   10   12 1
  21   10   35 1
  22   10   36 1
  23   12   13 ar
  24   12   17 ar
  25   13   14 ar
  26   13   37 1
  27   14   15 ar
  28   14   38 1
  29   15   16 ar
  30   15   18 1
  31   16   17 ar
  32   16   39 1
  33   17   40 1
  34   18   19 1
  35   19   20 1
  36   19   24 1
  37   19   25 1
  38   20   21 2
  39   20   22 1
  40   22   26 1
  41   23   41 1
  42   23   42 1
  43   23   43 1
  44   24   44 1
  45   24   45 1
  46   24   46 1
  47   25   47 1
  48   25   48 1
  49   25   49 1
  50   26   27 1
  51   26   50 1
  52   26   51 1
  53   27   52 1
  54   27   53 1
  55   27   54 1

#	End of record

