#	Name: ASD01811642
#	Creating user name:	WinNT
#	Creation time:	15. 06. 2019 19:27

#	Modifying user name:	WinNT
#	Modification time:	15. 06. 2019 19:27

#	Program:	/corina/corina34_cracker 3.40 0067  02.08.2006

@<TRIPOS>MOLECULE
ASD01811642
  52   56    0    0    0
SMALL
NO_CHARGES


@<TRIPOS>ATOM
   1 C1            -0.0167     1.3784     0.0096 C.ar    
   2 C2             0.0021    -0.0041     0.0020 C.ar    
   3 C3             1.2022    -0.6846    -0.0127 C.ar    
   4 C4             2.4052     0.0172    -0.0204 C.ar    
   5 C5             2.3738     1.4082    -0.0130 C.ar    
   6 C6             1.1744     2.0834     0.0020 C.ar    
   7 N7             3.7258    -0.4357    -0.0351 N.am    
   8 C8             4.6108     0.5783    -0.0381 C.2     
   9 C9             3.8108     1.8557    -0.0239 C.3     
  10 N10            4.1057     2.6806    -1.2010 N.3     
  11 C11            4.5757     4.0046    -0.7342 C.3     
  12 C12            5.1287     3.7491     0.6907 C.3     
  13 C13            4.1344     2.6846     1.2291 C.3     
  14 C14            2.9215     2.8151    -2.0598 C.3     
  15 O15            5.8198     0.4826    -0.0499 O.2     
  16 C16            4.1043    -1.8510    -0.0457 C.3     
  17 C17            4.2212    -2.3291    -1.4700 C.ar    
  18 C18            5.4332    -2.2378    -2.1303 C.ar    
  19 C19            5.5458    -2.6742    -3.4349 C.ar    
  20 C20            4.4360    -3.2074    -4.0865 C.ar    
  21 C21            3.2178    -3.2970    -3.4169 C.ar    
  22 C22            3.1176    -2.8629    -2.1105 C.ar    
  23 C23            4.5511    -3.6780    -5.4900 C.2     
  24 C24            5.7133    -3.6484    -6.2851 C.2     
  25 N25            5.4171    -4.1477    -7.4558 N.2     
  26 N26            4.0654    -4.5129    -7.4545 N.pl3   
  27 C27            3.5518    -4.2232    -6.2420 C.2     
  28 C28            3.3363    -5.1110    -8.5756 C.3     
  29 H29           -0.9585     1.9069     0.0169 H       
  30 H30           -0.9274    -0.5540     0.0080 H       
  31 H31            1.2088    -1.7646    -0.0179 H       
  32 H32            1.1627     3.1634     0.0072 H       
  33 H33            5.3651     4.3785    -1.3862 H       
  34 H34            3.7460     4.7106    -0.6982 H       
  35 H35            6.1425     3.3509     0.6502 H       
  36 H36            5.0916     4.6573     1.2923 H       
  37 H37            3.2349     3.1597     1.6206 H       
  38 H38            4.6075     2.0646     1.9906 H       
  39 H39            2.1157     3.2855    -1.4964 H       
  40 H40            3.1679     3.4310    -2.9247 H       
  41 H41            2.6022     1.8284    -2.3955 H       
  42 H42            5.0626    -1.9745     0.4589 H       
  43 H43            3.3431    -2.4345     0.4721 H       
  44 H44            6.2929    -1.8239    -1.6242 H       
  45 H45            6.4925    -2.6022    -3.9496 H       
  46 H46            2.3543    -3.7093    -3.9177 H       
  47 H47            2.1736    -2.9319    -1.5905 H       
  48 H48            6.6807    -3.2773    -5.9805 H       
  49 H49            2.5324    -4.3874    -5.9254 H       
  50 H50            3.4087    -6.1971    -8.5180 H       
  51 H51            2.2887    -4.8137    -8.5277 H       
  52 H52            3.7689    -4.7674    -9.5152 H       
@<TRIPOS>BOND
   1    1    2 ar
   2    1    6 ar
   3    1   29 1
   4    2    3 ar
   5    2   30 1
   6    3    4 ar
   7    3   31 1
   8    4    5 ar
   9    4    7 1
  10    5    6 ar
  11    5    9 1
  12    6   32 1
  13    7    8 am
  14    7   16 1
  15    8    9 1
  16    8   15 2
  17    9   10 1
  18    9   13 1
  19   10   11 1
  20   10   14 1
  21   11   12 1
  22   11   33 1
  23   11   34 1
  24   12   13 1
  25   12   35 1
  26   12   36 1
  27   13   37 1
  28   13   38 1
  29   14   39 1
  30   14   40 1
  31   14   41 1
  32   16   17 1
  33   16   42 1
  34   16   43 1
  35   17   18 ar
  36   17   22 ar
  37   18   19 ar
  38   18   44 1
  39   19   20 ar
  40   19   45 1
  41   20   21 ar
  42   20   23 1
  43   21   22 ar
  44   21   46 1
  45   22   47 1
  46   23   24 1
  47   23   27 2
  48   24   25 2
  49   24   48 1
  50   25   26 1
  51   26   27 1
  52   26   28 1
  53   27   49 1
  54   28   50 1
  55   28   51 1
  56   28   52 1

#	End of record

