#	Name: ASD01411026
#	Creating user name:	WinNT
#	Creation time:	15. 06. 2019 19:19

#	Modifying user name:	WinNT
#	Modification time:	15. 06. 2019 19:19

#	Program:	/corina/corina34_cracker 3.40 0067  02.08.2006

@<TRIPOS>MOLECULE
ASD01411026
  32   34    0    0    0
SMALL
NO_CHARGES


@<TRIPOS>ATOM
   1 C1             0.0456     1.2972    -0.0512 C.ar    
   2 C2            -0.0676    -0.0910     0.1561 C.ar    
   3 N3            -1.2685    -0.6582     0.2150 N.ar    
   4 C4            -2.3589     0.0829     0.0786 C.ar    
   5 C5            -2.2455     1.4738    -0.1291 C.ar    
   6 N6            -1.0486     2.0407    -0.1825 N.ar    
   7 C7            -3.4642     2.3013    -0.2815 C.ar    
   8 C8            -3.6966    -0.5493     0.1438 C.ar    
   9 C9            -3.5760     3.5148     0.3973 C.ar    
  10 C10           -4.7137     4.2815     0.2510 C.ar    
  11 C11           -5.7423     3.8491    -0.5670 C.ar    
  12 C12           -5.6373     2.6465    -1.2429 C.ar    
  13 C13           -4.5024     1.8733    -1.1089 C.ar    
  14 C14           -3.9452    -1.7351    -0.5473 C.ar    
  15 C15           -5.1934    -2.3195    -0.4823 C.ar    
  16 C16           -6.1974    -1.7317     0.2664 C.ar    
  17 C17           -5.9570    -0.5555     0.9541 C.ar    
  18 C18           -4.7114     0.0357     0.9012 C.ar    
  19 C19            1.3389     1.9086    -0.1148 C.1     
  20 N20            2.3648     2.3937    -0.1653 N.1     
  21 C21            1.1105    -0.8915     0.3029 C.1     
  22 N22            2.0452    -1.5266     0.4195 N.1     
  23 H23           -2.7739     3.8532     1.0365 H       
  24 H24           -4.8017     5.2211     0.7763 H       
  25 H25           -6.6310     4.4526    -0.6781 H       
  26 H26           -6.4437     2.3141    -1.8798 H       
  27 H27           -4.4216     0.9348    -1.6370 H       
  28 H28           -3.1623    -2.1947    -1.1324 H       
  29 H29           -5.3872    -3.2375    -1.0172 H       
  30 H30           -7.1729    -2.1927     0.3140 H       
  31 H31           -6.7449    -0.1012     1.5366 H       
  32 H32           -4.5250     0.9539     1.4384 H       
@<TRIPOS>BOND
   1    1    2 ar
   2    1   19 1
   3    1    6 ar
   4    2    3 ar
   5    2   21 1
   6    3    4 ar
   7    4    5 ar
   8    4    8 1
   9    5    6 ar
  10    5    7 1
  11    7    9 ar
  12    7   13 ar
  13    8   14 ar
  14    8   18 ar
  15    9   10 ar
  16    9   23 1
  17   10   11 ar
  18   10   24 1
  19   11   12 ar
  20   11   25 1
  21   12   13 ar
  22   12   26 1
  23   13   27 1
  24   14   15 ar
  25   14   28 1
  26   15   16 ar
  27   15   29 1
  28   16   17 ar
  29   16   30 1
  30   17   18 ar
  31   17   31 1
  32   18   32 1
  33   19   20 3
  34   21   22 3

#	End of record

