#	Name: ASD02560136
#	Creating user name:	WinNT
#	Creation time:	15. 06. 2019 20:24

#	Modifying user name:	WinNT
#	Modification time:	15. 06. 2019 20:24

#	Program:	/corina/corina34_cracker 3.40 0067  02.08.2006

@<TRIPOS>MOLECULE
ASD02560136
  45   47    0    0    0
SMALL
NO_CHARGES


@<TRIPOS>ATOM
   1 C1            -1.1143     1.5027     0.6682 C.ar    
   2 C2            -1.0604     0.1340     0.8681 C.ar    
   3 C3            -1.2168    -0.7365    -0.2025 C.ar    
   4 C4            -1.4281    -0.2379    -1.4769 C.ar    
   5 C5            -1.4835     1.1432    -1.6817 C.ar    
   6 C6            -1.3301     2.0119    -0.5965 C.ar    
   7 Cl7           -0.9171     2.5821     2.0135 Cl      
   8 C8            -1.7079     1.6815    -3.0335 C.2     
   9 C9            -1.7608     3.0145    -3.2280 C.2     
  10 O10           -1.1619    -2.0790     0.0006 O.3     
  11 C11            0.0449    -2.6939    -0.1193 C.ar    
  12 C12            1.1892    -1.9421    -0.3321 C.ar    
  13 C13            2.4155    -2.5692    -0.4538 C.ar    
  14 C14            2.5034    -3.9456    -0.3641 C.ar    
  15 C15            1.3653    -4.7020    -0.1523 C.ar    
  16 C16            0.1344    -4.0798    -0.0228 C.ar    
  17 O17           -0.9857    -4.8221     0.1861 O.3     
  18 C18           -0.8200    -6.2395     0.2614 C.3     
  19 C19           -2.1796    -6.9000     0.4983 C.3     
  20 N20           -3.0424    -6.6719    -0.6636 N.am    
  21 C21           -3.0402    -7.5698    -1.6961 C.2     
  22 C22           -3.8334    -5.5843    -0.7029 C.2     
  23 N23           -4.6362    -5.3505    -1.7577 N.am    
  24 C24           -4.6594    -6.2086    -2.7975 C.2     
  25 C25           -3.8354    -7.3595    -2.7669 C.2     
  26 O26           -5.3856    -5.9980    -3.7521 O.2     
  27 O27           -3.8233    -4.8019     0.2277 O.2     
  28 C28           -1.9791     3.5381    -4.5428 C.1     
  29 N29           -2.1522     3.9535    -5.5859 N.1     
  30 H30           -0.8958    -0.2584     1.8607 H       
  31 H31           -1.5494    -0.9144    -2.3100 H       
  32 H32           -1.3721     3.0803    -0.7492 H       
  33 H33           -1.8301     1.0086    -3.8693 H       
  34 H34           -1.6386     3.6875    -2.3922 H       
  35 H35            1.1232    -0.8665    -0.4033 H       
  36 H36            3.3067    -1.9821    -0.6197 H       
  37 H37            3.4631    -4.4316    -0.4601 H       
  38 H38            1.4368    -5.7774    -0.0830 H       
  39 H39           -0.3960    -6.6059    -0.6734 H       
  40 H40           -0.1491    -6.4836     1.0851 H       
  41 H41           -2.0425    -7.9715     0.6442 H       
  42 H42           -2.6434    -6.4689     1.3854 H       
  43 H43           -2.4052    -8.4424    -1.6549 H       
  44 H44           -5.2005    -4.5616    -1.7698 H       
  45 H45           -3.8402    -8.0580    -3.5905 H       
@<TRIPOS>BOND
   1    1    2 ar
   2    1    7 1
   3    1    6 ar
   4    2    3 ar
   5    2   30 1
   6    3    4 ar
   7    3   10 1
   8    4    5 ar
   9    4   31 1
  10    5    6 ar
  11    5    8 1
  12    6   32 1
  13    8    9 2
  14    8   33 1
  15    9   28 1
  16    9   34 1
  17   10   11 1
  18   11   12 ar
  19   11   16 ar
  20   12   13 ar
  21   12   35 1
  22   13   14 ar
  23   13   36 1
  24   14   15 ar
  25   14   37 1
  26   15   16 ar
  27   15   38 1
  28   16   17 1
  29   17   18 1
  30   18   19 1
  31   18   39 1
  32   18   40 1
  33   19   20 1
  34   19   41 1
  35   19   42 1
  36   20   21 1
  37   20   22 am
  38   21   25 2
  39   21   43 1
  40   22   23 am
  41   22   27 2
  42   23   24 am
  43   23   44 1
  44   24   25 1
  45   24   26 2
  46   25   45 1
  47   28   29 3

#	End of record

