#	Name: ASD07931871
#	Creating user name:	WinNT
#	Creation time:	15. 06. 2019 21:13

#	Modifying user name:	WinNT
#	Modification time:	15. 06. 2019 21:13

#	Program:	/corina/corina34_cracker 3.40 0067  02.08.2006

@<TRIPOS>MOLECULE
ASD07931871
  46   45    0    0    0
SMALL
NO_CHARGES


@<TRIPOS>ATOM
   1 C1            -0.0162     1.3436     0.0094 C.2     
   2 N2             0.0021    -0.0041     0.0020 N.am    
   3 O3             1.0277     1.9654     0.0028 O.2     
   4 O4            -1.1912     2.0008     0.0186 O.3     
   5 C5             1.8007    -0.8662     1.4173 C.3     
   6 C6             1.2806    -0.7192    -0.0140 C.3     
   7 C7             1.0816    -2.1059    -0.6292 C.3     
   8 C8             0.5614    -1.9589    -2.0606 C.3     
   9 C9             0.4838    -3.2858    -2.6931 C.1     
  10 C10            0.4219    -4.3441    -3.1976 C.1     
  11 Si11           0.3217    -6.0568    -4.0140 Si      
  12 C12           -0.3117    -5.8779    -5.7569 C.3     
  13 C13            2.0165    -6.8299    -4.0454 C.3     
  14 C14           -0.8379    -7.1421    -3.0402 C.3     
  15 O15            0.1345    -2.8407     0.1487 O.3     
  16 C16           -1.1349     3.4517     0.0262 C.3     
  17 C17           -0.4003     3.9401    -1.2239 C.3     
  18 C18           -2.5565     4.0172     0.0360 C.3     
  19 C19           -0.3885     3.9266     1.2745 C.3     
  20 H20           -0.8313    -0.5005     0.0073 H       
  21 H21            1.0783    -1.4267     2.0107 H       
  22 H22            2.7520    -1.3983     1.4054 H       
  23 H23            1.9425     0.1217     1.8556 H       
  24 H24            2.0030    -0.1587    -0.6074 H       
  25 H25            2.0328    -2.6380    -0.6412 H       
  26 H26           -0.4301    -1.5066    -2.0422 H       
  27 H27            1.2399    -1.3240    -2.6303 H       
  28 H28            0.3668    -5.2429    -6.3266 H       
  29 H29           -0.3691    -6.8605    -6.2252 H       
  30 H30           -1.3032    -5.4256    -5.7384 H       
  31 H31            2.3871    -6.9346    -3.0257 H       
  32 H32            1.9590    -7.8124    -4.5138 H       
  33 H33            2.6949    -6.1949    -4.6152 H       
  34 H34           -1.8294    -6.6898    -3.0218 H       
  35 H35           -0.8954    -8.1247    -3.5086 H       
  36 H36           -0.4673    -7.2468    -2.0205 H       
  37 H37           -0.7369    -2.4249     0.2030 H       
  38 H38           -0.9321     3.6018    -2.1132 H       
  39 H39           -0.3581     5.0293    -1.2182 H       
  40 H40            0.6125     3.5373    -1.2309 H       
  41 H41           -3.0798     3.6692     0.9266 H       
  42 H42           -2.5142     5.1064     0.0417 H       
  43 H43           -3.0883     3.6789    -0.8533 H       
  44 H44            0.6243     3.5237     1.2675 H       
  45 H45           -0.3462     5.0157     1.2802 H       
  46 H46           -0.9118     3.5786     2.1651 H       
@<TRIPOS>BOND
   1    1    2 am
   2    1    3 2
   3    1    4 1
   4    2    6 1
   5    2   20 1
   6    4   16 1
   7    5    6 1
   8    5   21 1
   9    5   22 1
  10    5   23 1
  11    6    7 1
  12    6   24 1
  13    7    8 1
  14    7   15 1
  15    7   25 1
  16    8    9 1
  17    8   26 1
  18    8   27 1
  19    9   10 3
  20   10   11 1
  21   11   12 1
  22   11   13 1
  23   11   14 1
  24   12   28 1
  25   12   29 1
  26   12   30 1
  27   13   31 1
  28   13   32 1
  29   13   33 1
  30   14   34 1
  31   14   35 1
  32   14   36 1
  33   15   37 1
  34   16   17 1
  35   16   19 1
  36   16   18 1
  37   17   38 1
  38   17   39 1
  39   17   40 1
  40   18   41 1
  41   18   42 1
  42   18   43 1
  43   19   44 1
  44   19   45 1
  45   19   46 1

#	End of record

