#	Name: ASD01028536
#	Creating user name:	WinNT
#	Creation time:	15. 06. 2019 18:57

#	Modifying user name:	WinNT
#	Modification time:	15. 06. 2019 18:57

#	Program:	/corina/corina34_cracker 3.40 0067  02.08.2006

@<TRIPOS>MOLECULE
ASD01028536
  41   45    0    0    0
SMALL
NO_CHARGES


@<TRIPOS>ATOM
   1 N1            -0.0169     1.3921     0.0097 N.2     
   2 N2             0.0021    -0.0041     0.0020 N.pl3   
   3 C3             1.1072     2.0742     0.0026 C.2     
   4 C4             2.3533     1.4122    -0.0133 C.2     
   5 C5             2.4034     0.0542    -0.0215 C.2     
   6 C6             1.2001    -0.6769    -0.0130 C.2     
   7 N7             0.9139    -1.9687    -0.0177 N.2     
   8 N8            -0.3645    -2.1206    -0.0054 N.2     
   9 C9            -0.9587    -0.9533     0.0057 C.2     
  10 C10           -2.4463    -0.7128     0.0225 C.3     
  11 C11            1.0649     3.5571     0.0110 C.2     
  12 C12           -2.9271    -0.6390     1.4489 C.ar    
  13 C13           -2.9524     0.5632     2.0880 C.ar    
  14 C14           -3.3452    -1.8006     2.0943 C.ar    
  15 C15           -3.7851    -1.7692     3.3820 C.ar    
  16 C16           -3.8206    -0.5482     4.0773 C.ar    
  17 C17           -3.4001     0.6331     3.4168 C.ar    
  18 N18           -4.2473    -0.4866     5.3427 N.ar    
  19 C19           -4.2819     0.6495     5.9957 C.ar    
  20 C20           -3.8781     1.8462     5.4071 C.ar    
  21 C21           -3.4364     1.8551     4.1148 C.ar    
  22 C22           -0.0587     4.3324     0.0259 C.2     
  23 N23            0.3351     5.6208     0.0290 N.pl3   
  24 N24            1.7348     5.6514     0.0158 N.2     
  25 C25            2.1772     4.4221     0.0112 C.2     
  26 C26           -0.5491     6.7888     0.0433 C.3     
  27 H27            3.2686     1.9856    -0.0193 H       
  28 H28            3.3542    -0.4578    -0.0344 H       
  29 H29           -2.6684     0.2261    -0.4848 H       
  30 H30           -2.9525    -1.5310    -0.4896 H       
  31 H31           -2.6296     1.4575     1.5759 H       
  32 H32           -3.3202    -2.7413     1.5643 H       
  33 H33           -4.1060    -2.6790     3.8675 H       
  34 H34           -4.6331     0.6583     7.0169 H       
  35 H35           -3.9186     2.7665     5.9708 H       
  36 H36           -3.1193     2.7734     3.6429 H       
  37 H37           -1.0786     3.9772     0.0334 H       
  38 H38            3.2145     4.1215     0.0013 H       
  39 H39           -0.7589     7.0730     1.0745 H       
  40 H40           -0.0636     7.6183    -0.4707 H       
  41 H41           -1.4827     6.5439    -0.4632 H       
@<TRIPOS>BOND
   1    1    2 1
   2    1    3 2
   3    2    6 1
   4    2    9 1
   5    3    4 1
   6    3   11 1
   7    4    5 2
   8    4   27 1
   9    5    6 1
  10    5   28 1
  11    6    7 2
  12    7    8 1
  13    8    9 2
  14    9   10 1
  15   10   12 1
  16   10   29 1
  17   10   30 1
  18   11   22 2
  19   11   25 1
  20   12   13 ar
  21   12   14 ar
  22   13   17 ar
  23   13   31 1
  24   14   15 ar
  25   14   32 1
  26   15   16 ar
  27   15   33 1
  28   16   17 ar
  29   16   18 ar
  30   17   21 ar
  31   18   19 ar
  32   19   20 ar
  33   19   34 1
  34   20   21 ar
  35   20   35 1
  36   21   36 1
  37   22   23 1
  38   22   37 1
  39   23   24 1
  40   23   26 1
  41   24   25 2
  42   25   38 1
  43   26   39 1
  44   26   40 1
  45   26   41 1

#	End of record

