#	Name: ASD01885455
#	Creating user name:	WinNT
#	Creation time:	15. 06. 2019 19:49

#	Modifying user name:	WinNT
#	Modification time:	15. 06. 2019 19:49

#	Program:	/corina/corina34_cracker 3.40 0067  02.08.2006

@<TRIPOS>MOLECULE
ASD01885455
  38   40    0    0    0
SMALL
NO_CHARGES


@<TRIPOS>ATOM
   1 C1            -0.0856     1.9730     0.1374 C.ar    
   2 C2            -0.2791     0.6080     0.3529 C.ar    
   3 N3            -1.4982     0.0316     0.4971 N.2     
   4 C4            -2.5487     0.2918    -0.1910 C.2     
   5 C5            -2.5504     1.3469    -1.2660 C.3     
   6 C6            -2.2674     2.6786    -0.6179 C.2     
   7 N7            -1.1224     2.8897     0.0292 N.am    
   8 C8             1.2117     2.4692     0.0146 C.ar    
   9 C9             2.3037     1.6221     0.0993 C.ar    
  10 C10            2.1115     0.2597     0.3086 C.ar    
  11 C11            0.8393    -0.2420     0.4338 C.ar    
  12 C12           -3.7868    -0.4608     0.0773 C.ar    
  13 O13           -3.0899     3.5671    -0.6886 O.2     
  14 C14           -3.8336    -1.4531     1.0695 C.ar    
  15 C15           -5.0323    -2.1162     1.2624 C.ar    
  16 N16           -6.0829    -1.8085     0.5251 N.ar    
  17 N17           -6.0486    -0.9035    -0.3832 N.ar    
  18 C18           -4.9606    -0.2076    -0.6447 C.ar    
  19 N19            3.5979     2.1348    -0.0259 N.am    
  20 C20            3.9563     2.7938    -1.1456 C.2     
  21 O21            5.0794     3.2387    -1.2541 O.2     
  22 S22            4.6909     1.9326     1.2017 S.o2    
  23 O23            5.4894     3.1071     1.1569 O.2     
  24 O24            3.8910     1.6333     2.3374 O.2     
  25 C25            5.6630     0.4828     0.7079 C.3     
  26 H26           -1.7774     1.1240    -2.0015 H       
  27 H27           -3.5253     1.3744    -1.7529 H       
  28 H28           -1.0045     3.7499     0.4616 H       
  29 H29            1.3664     3.5255    -0.1486 H       
  30 H30            2.9623    -0.4026     0.3722 H       
  31 H31            0.6957    -1.3000     0.5964 H       
  32 H32           -2.9626    -1.6910     1.6622 H       
  33 H33           -5.1084    -2.8860     2.0161 H       
  34 H34           -4.9710     0.5469    -1.4174 H       
  35 H35            3.2435     2.9257    -1.9461 H       
  36 H36            6.1534     0.6816    -0.2450 H       
  37 H37            6.4162     0.2744     1.4677 H       
  38 H38            5.0034    -0.3788     0.6043 H       
@<TRIPOS>BOND
   1    1    2 ar
   2    1    8 ar
   3    1    7 1
   4    2    3 1
   5    2   11 ar
   6    3    4 2
   7    4    5 1
   8    4   12 1
   9    5    6 1
  10    5   26 1
  11    5   27 1
  12    6    7 am
  13    6   13 2
  14    7   28 1
  15    8    9 ar
  16    8   29 1
  17    9   10 ar
  18    9   19 1
  19   10   11 ar
  20   10   30 1
  21   11   31 1
  22   12   14 ar
  23   12   18 ar
  24   14   15 ar
  25   14   32 1
  26   15   16 ar
  27   15   33 1
  28   16   17 ar
  29   17   18 ar
  30   18   34 1
  31   19   20 am
  32   19   22 am
  33   20   21 2
  34   20   35 1
  35   22   23 2
  36   22   24 2
  37   22   25 1
  38   25   36 1
  39   25   37 1
  40   25   38 1

#	End of record

