#	Name: ASD00190064
#	Creating user name:	WinNT
#	Creation time:	15. 06. 2019 18:33

#	Modifying user name:	WinNT
#	Modification time:	15. 06. 2019 18:33

#	Program:	/corina/corina34_cracker 3.40 0067  02.08.2006

@<TRIPOS>MOLECULE
ASD00190064
  56   62    0    0    0
SMALL
NO_CHARGES


@<TRIPOS>ATOM
   1 C1            -0.0155     1.4001    -0.0018 C.ar    
   2 C2             0.0045    -0.0025    -0.0034 C.ar    
   3 C3             1.1961    -0.6644    -0.0266 C.ar    
   4 C4             2.4008     0.0296    -0.0490 C.ar    
   5 C5             2.4191     1.3942    -0.0478 C.ar    
   6 C6             1.2141     2.1028    -0.0247 C.ar    
   7 C7             1.1790     3.5589    -0.0227 C.ar    
   8 C8            -0.0714     4.1845     0.0017 C.ar    
   9 C9            -1.2367     3.3851     0.0221 C.ar    
  10 N10           -1.1755     2.0730     0.0263 N.ar    
  11 N11            2.1128     4.5579    -0.0389 N.pl3   
  12 C12            1.4405     5.7413    -0.0246 C.2     
  13 N13            0.1573     5.5195    -0.0008 N.2     
  14 N14           -2.4770     4.0021     0.0462 N.pl3   
  15 C15           -3.6415     3.2348    -0.0534 C.ar    
  16 C16           -4.7857     3.6141     0.6369 C.ar    
  17 C17           -5.9353     2.8537     0.5365 C.ar    
  18 C18           -5.9465     1.7146    -0.2516 C.ar    
  19 C19           -4.8079     1.3354    -0.9397 C.ar    
  20 C20           -3.6580     2.0952    -0.8472 C.ar    
  21 C21            2.0843     7.1039    -0.0344 C.3     
  22 C22            1.0357     8.1609    -0.3867 C.3     
  23 C23            1.6894     9.5442    -0.3966 C.3     
  24 C24            3.3191     8.7866     1.3390 C.3     
  25 C25            2.6654     7.4032     1.3489 C.3     
  26 Cl26          -7.3659     3.3261     1.3990 Cl      
  27 Cl27          -7.3918     0.7608    -0.3755 Cl      
  28 C28            4.4401     8.8134     0.2981 C.3     
  29 C29            2.8104     9.5711    -1.4375 C.3     
  30 C30            3.8590     8.5141    -1.0852 C.3     
  31 C31            3.2053     7.1307    -1.0753 C.3     
  32 C32            2.2705     9.8436     0.9867 C.3     
  33 H33           -0.9222    -0.5569     0.0141 H       
  34 H34            1.2045    -1.7444    -0.0273 H       
  35 H35            3.3321    -0.5171    -0.0672 H       
  36 H36            3.3600     1.9243    -0.0646 H       
  37 H37            3.0759     4.4441    -0.0572 H       
  38 H38           -2.5374     4.9664     0.1323 H       
  39 H39           -4.7769     4.5020     1.2516 H       
  40 H40           -4.8192     0.4466    -1.5531 H       
  41 H41           -2.7709     1.8009    -1.3883 H       
  42 H42            0.6217     7.9476    -1.3722 H       
  43 H43            0.2371     8.1417     0.3548 H       
  44 H44            0.9424    10.2972    -0.6477 H       
  45 H45            3.7331     8.9998     2.3245 H       
  46 H46            1.8668     7.3841     2.0905 H       
  47 H47            3.4124     6.6502     1.5999 H       
  48 H48            4.9058     9.7989     0.2911 H       
  49 H49            5.1871     8.0604     0.5492 H       
  50 H50            2.3964     9.3578    -2.4230 H       
  51 H51            3.2761    10.5566    -1.4446 H       
  52 H52            4.6577     8.5332    -1.8267 H       
  53 H53            3.9523     6.3777    -0.8242 H       
  54 H54            2.7913     6.9175    -2.0607 H       
  55 H55            2.7362    10.8291     0.9796 H       
  56 H56            1.4719     9.8244     1.7282 H       
@<TRIPOS>BOND
   1    1    2 ar
   2    1    6 ar
   3    1   10 ar
   4    2    3 ar
   5    2   33 1
   6    3    4 ar
   7    3   34 1
   8    4    5 ar
   9    4   35 1
  10    5    6 ar
  11    5   36 1
  12    6    7 ar
  13    7   11 1
  14    7    8 ar
  15    8    9 ar
  16    8   13 1
  17    9   10 ar
  18    9   14 1
  19   11   12 1
  20   11   37 1
  21   12   13 2
  22   12   21 1
  23   14   15 1
  24   14   38 1
  25   15   16 ar
  26   15   20 ar
  27   16   17 ar
  28   16   39 1
  29   17   18 ar
  30   17   26 1
  31   18   19 ar
  32   18   27 1
  33   19   20 ar
  34   19   40 1
  35   20   41 1
  36   21   22 1
  37   21   25 1
  38   21   31 1
  39   22   23 1
  40   22   42 1
  41   22   43 1
  42   23   29 1
  43   23   32 1
  44   23   44 1
  45   24   25 1
  46   24   28 1
  47   24   32 1
  48   24   45 1
  49   25   46 1
  50   25   47 1
  51   28   30 1
  52   28   48 1
  53   28   49 1
  54   29   30 1
  55   29   50 1
  56   29   51 1
  57   30   31 1
  58   30   52 1
  59   31   53 1
  60   31   54 1
  61   32   55 1
  62   32   56 1

#	End of record

