#	Name: ASD01917084
#	Creating user name:	WinNT
#	Creation time:	15. 06. 2019 20:08

#	Modifying user name:	WinNT
#	Modification time:	15. 06. 2019 20:08

#	Program:	/corina/corina34_cracker 3.40 0067  02.08.2006

@<TRIPOS>MOLECULE
ASD01917084
  42   44    0    0    0
SMALL
NO_CHARGES


@<TRIPOS>ATOM
   1 C1            -0.0424     1.4708     0.1513 C.ar    
   2 C2            -0.0085    -0.0061     0.0633 C.2     
   3 N3             1.0564    -0.7655     0.2105 N.2     
   4 C4             0.7170    -2.0511     0.0661 C.2     
   5 N5            -0.5741    -2.1275    -0.1761 N.2     
   6 N6            -1.0679    -0.8129    -0.1769 N.pl3   
   7 C7            -2.4544    -0.3967    -0.4022 C.3     
   8 C8            -3.1963    -0.3901     0.9095 C.2     
   9 O9            -4.4913    -0.0387     0.9464 O.3     
  10 O10           -2.6255    -0.7011     1.9280 O.2     
  11 C11            1.6458    -3.2043     0.1631 C.ar    
  12 C12           -1.2473     2.1305     0.3939 C.ar    
  13 C13            1.1675    -4.5015    -0.0081 C.ar    
  14 C14            2.0319    -5.5740     0.0823 C.ar    
  15 C15            3.3770    -5.3633     0.3430 C.ar    
  16 C16            3.8606    -4.0684     0.5150 C.ar    
  17 C17            2.9990    -2.9908     0.4201 C.ar    
  18 O18            4.2254    -6.4221     0.4312 O.3     
  19 C19            3.6621    -7.7220     0.2447 C.3     
  20 C20           -1.2724     3.5077     0.4748 C.ar    
  21 C21           -0.1058     4.2342     0.3160 C.ar    
  22 C22            1.0923     3.5858     0.0752 C.ar    
  23 C23            1.1315     2.2087    -0.0022 C.ar    
  24 O24            5.1804    -3.8636     0.7716 O.3     
  25 C25            5.6067    -2.5098     0.9368 C.3     
  26 H26           -2.4678     0.6047    -0.8323 H       
  27 H27           -2.9359    -1.0934    -1.0884 H       
  28 H28           -4.9247    -0.0496     1.8107 H       
  29 H29           -2.1588     1.5645     0.5178 H       
  30 H30            0.1200    -4.6681    -0.2113 H       
  31 H31            1.6595    -6.5790    -0.0500 H       
  32 H32            3.3725    -1.9862     0.5532 H       
  33 H33            2.8952    -7.8974     0.9992 H       
  34 H34            3.2164    -7.7858    -0.7480 H       
  35 H35            4.4449    -8.4744     0.3405 H       
  36 H36           -2.2047     4.0196     0.6623 H       
  37 H37           -0.1307     5.3120     0.3798 H       
  38 H38            1.9997     4.1585    -0.0480 H       
  39 H39            2.0674     1.7037    -0.1899 H       
  40 H40            5.0724    -2.0602     1.7738 H       
  41 H41            6.6782    -2.4879     1.1359 H       
  42 H42            5.3947    -1.9484     0.0269 H       
@<TRIPOS>BOND
   1    1    2 1
   2    1   12 ar
   3    1   23 ar
   4    2    3 2
   5    2    6 1
   6    3    4 1
   7    4    5 2
   8    4   11 1
   9    5    6 1
  10    6    7 1
  11    7    8 1
  12    7   26 1
  13    7   27 1
  14    8    9 1
  15    8   10 2
  16    9   28 1
  17   11   13 ar
  18   11   17 ar
  19   12   20 ar
  20   12   29 1
  21   13   14 ar
  22   13   30 1
  23   14   15 ar
  24   14   31 1
  25   15   16 ar
  26   15   18 1
  27   16   17 ar
  28   16   24 1
  29   17   32 1
  30   18   19 1
  31   19   33 1
  32   19   34 1
  33   19   35 1
  34   20   21 ar
  35   20   36 1
  36   21   22 ar
  37   21   37 1
  38   22   23 ar
  39   22   38 1
  40   23   39 1
  41   24   25 1
  42   25   40 1
  43   25   41 1
  44   25   42 1

#	End of record

