#	Name: ASD06170096
#	Creating user name:	WinNT
#	Creation time:	15. 06. 2019 21:05

#	Modifying user name:	WinNT
#	Modification time:	15. 06. 2019 21:05

#	Program:	/corina/corina34_cracker 3.40 0067  02.08.2006

@<TRIPOS>MOLECULE
ASD06170096
  69   74    0    0    0
SMALL
NO_CHARGES


@<TRIPOS>ATOM
   1 N1             0.2773     1.9816    -0.3033 N.pl3   
   2 N2             0.0962     0.7013     0.2282 N.am    
   3 C3             1.3049     0.1939     0.5476 C.2     
   4 C4             2.2967     1.2214     0.1929 C.2     
   5 C5             1.5882     2.2889    -0.3233 C.2     
   6 C6             3.7525     1.1301     0.3559 C.2     
   7 O7             4.4619     2.0598     0.0194 O.2     
   8 N8             4.3036     0.0166     0.8783 N.am    
   9 C9            -0.7990     2.8567    -0.7746 C.3     
  10 C10           -1.1868     3.8124     0.3242 C.ar    
  11 C11           -0.5527     5.0360     0.4317 C.ar    
  12 C12           -0.9084     5.9126     1.4396 C.ar    
  13 C13           -1.8986     5.5658     2.3397 C.ar    
  14 C14           -2.5333     4.3426     2.2317 C.ar    
  15 C15           -2.1806     3.4678     1.2211 C.ar    
  16 C16           -1.1321     0.0551     0.4008 C.ar    
  17 C17           -2.0454     0.0059    -0.6444 C.ar    
  18 C18           -3.2573    -0.6334    -0.4709 C.ar    
  19 C19           -3.5620    -1.2237     0.7420 C.ar    
  20 C20           -2.6550    -1.1760     1.7847 C.ar    
  21 C21           -1.4388    -0.5437     1.6158 C.ar    
  22 O22            1.5305    -0.8988     1.0335 O.2     
  23 C23            5.6908    -0.1267     0.9088 C.ar    
  24 C24            6.5004     1.0011     0.8319 C.ar    
  25 C25            7.8746     0.8477     0.8630 C.ar    
  26 C26            8.3962    -0.4393     0.9708 C.ar    
  27 C27            7.5280    -1.5168     1.0430 C.ar    
  28 N28            6.2217    -1.3339     1.0160 N.ar    
  29 O29            9.7411    -0.6359     1.0045 O.3     
  30 N30           11.6589    -0.1382     4.6216 N.ar    
  31 C31           10.3666     0.0698     4.5256 C.ar    
  32 C32            9.6869    -0.0877     3.3246 C.ar    
  33 C33           10.3785    -0.4741     2.1899 C.ar    
  34 C34           11.7698    -0.6953     2.3049 C.ar    
  35 C35           12.5376    -1.0886     1.1991 C.ar    
  36 C36           13.8753    -1.2938     1.3419 C.ar    
  37 C37           14.4977    -1.1172     2.5810 C.ar    
  38 C38           13.7714    -0.7321     3.6852 C.ar    
  39 C39           12.3898    -0.5134     3.5652 C.ar    
  40 O40           15.8345    -1.3284     2.6970 O.3     
  41 C41           16.5332    -1.7269     1.5160 C.3     
  42 C42            2.1823     3.5798    -0.8251 C.3     
  43 H43            3.7356    -0.6851     1.2330 H       
  44 H44           -0.4555     3.4204    -1.6419 H       
  45 H45           -1.6628     2.2528    -1.0525 H       
  46 H46            0.2209     5.3069    -0.2715 H       
  47 H47           -0.4125     6.8683     1.5240 H       
  48 H48           -2.1760     6.2504     3.1276 H       
  49 H49           -3.3067     4.0715     2.9351 H       
  50 H50           -2.6791     2.5136     1.1345 H       
  51 H51           -1.8084     0.4674    -1.5916 H       
  52 H52           -3.9680    -0.6720    -1.2832 H       
  53 H53           -4.5105    -1.7227     0.8752 H       
  54 H54           -2.8962    -1.6374     2.7309 H       
  55 H55           -0.7289    -0.5110     2.4291 H       
  56 H56            6.0617     1.9845     0.7485 H       
  57 H57            8.5279     1.7057     0.8046 H       
  58 H58            7.9253    -2.5176     1.1264 H       
  59 H59            9.8164     0.3713     5.4047 H       
  60 H60            8.6227     0.0904     3.2765 H       
  61 H61           12.0682    -1.2287     0.2365 H       
  62 H62           14.4629    -1.5970     0.4879 H       
  63 H63           14.2617    -0.5984     4.6381 H       
  64 H64           17.5899    -1.8615     1.7469 H       
  65 H65           16.1192    -2.6657     1.1482 H       
  66 H66           16.4235    -0.9573     0.7518 H       
  67 H67            2.2454     4.2940    -0.0042 H       
  68 H68            3.1806     3.3910    -1.2200 H       
  69 H69            1.5506     3.9880    -1.6141 H       
@<TRIPOS>BOND
   1    1    2 1
   2    1    5 1
   3    1    9 1
   4    2    3 am
   5    2   16 1
   6    3    4 1
   7    3   22 2
   8    4    5 2
   9    4    6 1
  10    5   42 1
  11    6    7 2
  12    6    8 am
  13    8   23 1
  14    8   43 1
  15    9   10 1
  16    9   44 1
  17    9   45 1
  18   10   11 ar
  19   10   15 ar
  20   11   12 ar
  21   11   46 1
  22   12   13 ar
  23   12   47 1
  24   13   14 ar
  25   13   48 1
  26   14   15 ar
  27   14   49 1
  28   15   50 1
  29   16   17 ar
  30   16   21 ar
  31   17   18 ar
  32   17   51 1
  33   18   19 ar
  34   18   52 1
  35   19   20 ar
  36   19   53 1
  37   20   21 ar
  38   20   54 1
  39   21   55 1
  40   23   24 ar
  41   23   28 ar
  42   24   25 ar
  43   24   56 1
  44   25   26 ar
  45   25   57 1
  46   26   27 ar
  47   26   29 1
  48   27   28 ar
  49   27   58 1
  50   29   33 1
  51   30   31 ar
  52   30   39 ar
  53   31   32 ar
  54   31   59 1
  55   32   33 ar
  56   32   60 1
  57   33   34 ar
  58   34   35 ar
  59   34   39 ar
  60   35   36 ar
  61   35   61 1
  62   36   37 ar
  63   36   62 1
  64   37   38 ar
  65   37   40 1
  66   38   39 ar
  67   38   63 1
  68   40   41 1
  69   41   64 1
  70   41   65 1
  71   41   66 1
  72   42   67 1
  73   42   68 1
  74   42   69 1

#	End of record

