#	Name: ASD03730228
#	Creating user name:	WinNT
#	Creation time:	15. 06. 2019 20:44

#	Modifying user name:	WinNT
#	Modification time:	15. 06. 2019 20:44

#	Program:	/corina/corina34_cracker 3.40 0067  02.08.2006

@<TRIPOS>MOLECULE
ASD03730228
  60   66    0    0    0
SMALL
NO_CHARGES


@<TRIPOS>ATOM
   1 O1            -0.0175     1.4356     0.0099 O.3     
   2 C2             0.0021    -0.0041     0.0020 C.3     
   3 O3             1.2460    -0.3260    -0.6475 O.3     
   4 C4             2.0711     0.7342    -0.4023 C.ar    
   5 C5             1.2935     1.8179    -0.0005 C.ar    
   6 C6             3.4456     0.8636    -0.4889 C.ar    
   7 C7             4.0606     2.0733    -0.1807 C.ar    
   8 C8             3.2725     3.1524     0.2081 C.ar    
   9 C9             1.9024     3.0241     0.3027 C.ar    
  10 O10            5.3838     2.4037    -0.1829 O.3     
  11 C11            4.2102     4.3071     0.4380 C.3     
  12 C12            5.5150     3.8379    -0.2202 C.3     
  13 N13            3.6179     6.4789     0.8308 N.am    
  14 C14            3.7031     5.5822    -0.1721 C.2     
  15 C15            4.3967     4.6109     1.8948 C.ar    
  16 C16            4.8372     3.8657     2.9828 C.ar    
  17 C17            4.8983     4.4551     4.2478 C.ar    
  18 C18            4.5204     5.7731     4.4063 C.ar    
  19 C19            4.0837     6.5115     3.3250 C.ar    
  20 C20            4.0185     5.9385     2.0557 C.ar    
  21 O21            3.4246     5.7684    -1.3378 O.2     
  22 C22            3.1584     7.8591     0.6570 C.3     
  23 C23            1.6427     7.9209     0.8563 C.3     
  24 C24            1.1628     9.3623     0.6747 C.3     
  25 C25           -0.3529     9.4242     0.8740 C.3     
  26 C26           -0.8328    10.8656     0.6925 C.3     
  27 O27            4.5079     1.5166     2.1677 O.3     
  28 C28            5.2389     2.4547     2.8016 C.2     
  29 C29            6.3963     1.9116     3.2480 C.2     
  30 C30            6.3661     0.5035     2.8454 C.ar    
  31 C31            5.1453     0.3283     2.1691 C.ar    
  32 C32            4.8263    -0.9241     1.6607 C.ar    
  33 C33            5.7044    -1.9751     1.8237 C.ar    
  34 C34            6.9070    -1.7966     2.4916 C.ar    
  35 C35            7.2412    -0.5721     3.0005 C.ar    
  36 H36           -0.0101    -0.3928     1.0203 H       
  37 H37           -0.8403    -0.3953    -0.5684 H       
  38 H38            4.0454     0.0201    -0.7974 H       
  39 H39            1.3028     3.8668     0.6136 H       
  40 H40            6.3794     4.1629     0.3587 H       
  41 H41            5.5800     4.1941    -1.2483 H       
  42 H42            5.2392     3.8822     5.0975 H       
  43 H43            4.5664     6.2299     5.3839 H       
  44 H44            3.7905     7.5418     3.4632 H       
  45 H45            3.6477     8.5000     1.3903 H       
  46 H46            3.4070     8.2010    -0.3477 H       
  47 H47            1.1533     7.2800     0.1229 H       
  48 H48            1.3941     7.5790     1.8610 H       
  49 H49            1.6522    10.0033     1.4081 H       
  50 H50            1.4114     9.7042    -0.3300 H       
  51 H51           -0.8422     8.7832     0.1407 H       
  52 H52           -0.6015     9.0823     1.8787 H       
  53 H53           -1.9126    10.9096     0.8345 H       
  54 H54           -0.3434    11.5065     1.4259 H       
  55 H55           -0.5842    11.2075    -0.3122 H       
  56 H56            7.1828     2.4149     3.7907 H       
  57 H57            3.8926    -1.0747     1.1393 H       
  58 H58            5.4528    -2.9477     1.4273 H       
  59 H59            7.5834    -2.6300     2.6110 H       
  60 H60            8.1788    -0.4380     3.5194 H       
@<TRIPOS>BOND
   1    1    2 1
   2    1    5 1
   3    2    3 1
   4    2   36 1
   5    2   37 1
   6    3    4 1
   7    4    5 ar
   8    4    6 ar
   9    5    9 ar
  10    6    7 ar
  11    6   38 1
  12    7    8 ar
  13    7   10 1
  14    8    9 ar
  15    8   11 1
  16    9   39 1
  17   10   12 1
  18   11   12 1
  19   11   14 1
  20   11   15 1
  21   12   40 1
  22   12   41 1
  23   13   14 am
  24   13   20 1
  25   13   22 1
  26   14   21 2
  27   15   16 ar
  28   15   20 ar
  29   16   17 ar
  30   16   28 1
  31   17   18 ar
  32   17   42 1
  33   18   19 ar
  34   18   43 1
  35   19   20 ar
  36   19   44 1
  37   22   23 1
  38   22   45 1
  39   22   46 1
  40   23   24 1
  41   23   47 1
  42   23   48 1
  43   24   25 1
  44   24   49 1
  45   24   50 1
  46   25   26 1
  47   25   51 1
  48   25   52 1
  49   26   53 1
  50   26   54 1
  51   26   55 1
  52   27   28 1
  53   27   31 1
  54   28   29 2
  55   29   30 1
  56   29   56 1
  57   30   31 ar
  58   30   35 ar
  59   31   32 ar
  60   32   33 ar
  61   32   57 1
  62   33   34 ar
  63   33   58 1
  64   34   35 ar
  65   34   59 1
  66   35   60 1

#	End of record

