#	Name: ASD01815962
#	Creating user name:	WinNT
#	Creation time:	15. 06. 2019 19:34

#	Modifying user name:	WinNT
#	Modification time:	15. 06. 2019 19:34

#	Program:	/corina/corina34_cracker 3.40 0067  02.08.2006

@<TRIPOS>MOLECULE
ASD01815962
  57   62    0    0    0
SMALL
NO_CHARGES


@<TRIPOS>ATOM
   1 C1             1.1864     2.2608    -0.5295 C.ar    
   2 C2             0.8024     0.9299    -0.5131 C.ar    
   3 C3             1.7405    -0.0716    -0.3558 C.ar    
   4 C4             3.0874     0.2505    -0.2121 C.ar    
   5 C5             3.4739     1.6004    -0.2296 C.ar    
   6 C6             2.5182     2.6017    -0.3885 C.ar    
   7 N7             4.0328    -0.7493    -0.0535 N.pl3   
   8 C8             5.3439    -0.4992     0.0898 C.2     
   9 C9             5.8389     0.7814     0.0883 C.2     
  10 C10            4.9058     1.9194    -0.0758 C.2     
  11 C11            7.1602     1.3880     0.2165 C.2     
  12 N12            6.9715     2.7226     0.1314 N.am    
  13 N13            5.6155     3.0107    -0.0429 N.2     
  14 C14            7.9899     3.6812     0.2068 C.ar    
  15 O15            8.2219     0.8063     0.3703 O.2     
  16 C16            3.5814    -2.1429    -0.0411 C.3     
  17 C17            3.4352    -2.6362    -1.4576 C.ar    
  18 C18            4.5182    -2.5898    -2.3200 C.ar    
  19 C19            4.3881    -3.0410    -3.6205 C.ar    
  20 C20            3.1657    -3.5426    -4.0612 C.ar    
  21 C21            2.0802    -3.5868    -3.1882 C.ar    
  22 C22            2.2216    -3.1389    -1.8905 C.ar    
  23 F23            2.8918     3.8999    -0.4051 F       
  24 F24            1.3506    -1.3650    -0.3409 F       
  25 C25            8.7071     4.0254    -0.9312 C.ar    
  26 C26            9.7110     4.9710    -0.8538 C.ar    
  27 C27           10.0031     5.5756     0.3551 C.ar    
  28 C28            9.2919     5.2364     1.4913 C.ar    
  29 C29            8.2815     4.2946     1.4204 C.ar    
  30 F30            7.5864     3.9630     2.5304 F       
  31 F31            5.7028    -2.1029    -1.8900 F       
  32 C32            3.0195    -4.0278    -5.4558 C.ar    
  33 C33            4.0983    -3.9868    -6.3341 C.ar    
  34 N34            3.9727    -4.4169    -7.5738 N.ar    
  35 C35            2.8294    -4.9007    -8.0308 C.ar    
  36 C36            1.7077    -4.9741    -7.2129 C.ar    
  37 C37            1.7968    -4.5386    -5.9049 C.ar    
  38 O38            2.7504    -5.3305    -9.3150 O.3     
  39 C39            3.9356    -5.2296   -10.1070 C.3     
  40 H40            0.4433     3.0340    -0.6573 H       
  41 H41           -0.2407     0.6729    -0.6240 H       
  42 H42            6.0272    -1.3269     0.2097 H       
  43 H43            4.3130    -2.7572     0.4838 H       
  44 H44            2.6197    -2.2089     0.4677 H       
  45 H45            5.2323    -3.0042    -4.2931 H       
  46 H46            1.1305    -3.9750    -3.5256 H       
  47 H47            1.3805    -3.1732    -1.2140 H       
  48 H48            8.4805     3.5539    -1.8760 H       
  49 H49           10.2690     5.2384    -1.7390 H       
  50 H50           10.7889     6.3143     0.4120 H       
  51 H51            9.5227     5.7102     2.4340 H       
  52 H52            5.0479    -3.5983    -5.9967 H       
  53 H53            0.7784    -5.3703    -7.5946 H       
  54 H54            0.9414    -4.5844    -5.2472 H       
  55 H55            3.7355    -5.6064   -11.1100 H       
  56 H56            4.2454    -4.1862   -10.1659 H       
  57 H57            4.7299    -5.8191    -9.6491 H       
@<TRIPOS>BOND
   1    1    2 ar
   2    1    6 ar
   3    1   40 1
   4    2    3 ar
   5    2   41 1
   6    3    4 ar
   7    3   24 1
   8    4    5 ar
   9    4    7 1
  10    5    6 ar
  11    5   10 1
  12    6   23 1
  13    7    8 1
  14    7   16 1
  15    8    9 2
  16    8   42 1
  17    9   10 1
  18    9   11 1
  19   10   13 2
  20   11   12 am
  21   11   15 2
  22   12   13 1
  23   12   14 1
  24   14   25 ar
  25   14   29 ar
  26   16   17 1
  27   16   43 1
  28   16   44 1
  29   17   18 ar
  30   17   22 ar
  31   18   19 ar
  32   18   31 1
  33   19   20 ar
  34   19   45 1
  35   20   21 ar
  36   20   32 1
  37   21   22 ar
  38   21   46 1
  39   22   47 1
  40   25   26 ar
  41   25   48 1
  42   26   27 ar
  43   26   49 1
  44   27   28 ar
  45   27   50 1
  46   28   29 ar
  47   28   51 1
  48   29   30 1
  49   32   33 ar
  50   32   37 ar
  51   33   34 ar
  52   33   52 1
  53   34   35 ar
  54   35   36 ar
  55   35   38 1
  56   36   37 ar
  57   36   53 1
  58   37   54 1
  59   38   39 1
  60   39   55 1
  61   39   56 1
  62   39   57 1

#	End of record

