#	Name: ASD01916344
#	Creating user name:	WinNT
#	Creation time:	15. 06. 2019 20:07

#	Modifying user name:	WinNT
#	Modification time:	15. 06. 2019 20:07

#	Program:	/corina/corina34_cracker 3.40 0067  02.08.2006

@<TRIPOS>MOLECULE
ASD01916344
  30   32    0    0    0
SMALL
NO_CHARGES


@<TRIPOS>ATOM
   1 C1            -0.4975     1.8116    -0.8200 C.3     
   2 C2            -0.2717     0.3666    -0.3656 C.3     
   3 C3             0.3997    -0.4220    -1.4921 C.3     
   4 C4             1.6216     0.3496    -1.9682 C.2     
   5 C5             1.8062     1.6532    -1.7004 C.2     
   6 C6             0.8570     2.5230    -0.9106 C.3     
   7 N7             2.6064    -0.1832    -2.6829 N.2     
   8 C8             3.5874     0.5885    -3.0215 C.2     
   9 S9             3.3268     2.1667    -2.4201 S.3     
  10 N10            4.6901     0.1929    -3.7635 N.pl3   
  11 C11            5.7552     1.0781    -3.9596 C.ar    
  12 C12            6.1346     1.9458    -2.9435 C.ar    
  13 C13            7.1866     2.8190    -3.1394 C.ar    
  14 C14            7.8626     2.8302    -4.3479 C.ar    
  15 C15            7.4861     1.9661    -5.3623 C.ar    
  16 C16            6.4387     1.0869    -5.1687 C.ar    
  17 F17            8.8907     3.6858    -4.5377 F       
  18 H18           -0.9778     1.8155    -1.7984 H       
  19 H19           -1.1321     2.3260    -0.0983 H       
  20 H20            0.3694     0.3587     0.5159 H       
  21 H21           -1.2302    -0.0919    -0.1222 H       
  22 H22            0.7067    -1.3998    -1.1211 H       
  23 H23           -0.2996    -0.5454    -2.3190 H       
  24 H24            0.7338     3.4816    -1.4146 H       
  25 H25            1.2546     2.6821     0.0917 H       
  26 H26            4.7228    -0.6977    -4.1464 H       
  27 H27            5.6072     1.9378    -2.0011 H       
  28 H28            7.4819     3.4938    -2.3496 H       
  29 H29            8.0145     1.9768    -6.3042 H       
  30 H30            6.1454     0.4131    -5.9601 H       
@<TRIPOS>BOND
   1    1    2 1
   2    1    6 1
   3    1   18 1
   4    1   19 1
   5    2    3 1
   6    2   20 1
   7    2   21 1
   8    3    4 1
   9    3   22 1
  10    3   23 1
  11    4    7 1
  12    4    5 2
  13    5    6 1
  14    5    9 1
  15    6   24 1
  16    6   25 1
  17    7    8 2
  18    8    9 1
  19    8   10 1
  20   10   11 1
  21   10   26 1
  22   11   12 ar
  23   11   16 ar
  24   12   13 ar
  25   12   27 1
  26   13   14 ar
  27   13   28 1
  28   14   15 ar
  29   14   17 1
  30   15   16 ar
  31   15   29 1
  32   16   30 1

#	End of record

