#	Name: ASD05430716
#	Creating user name:	WinNT
#	Creation time:	15. 06. 2019 21:00

#	Modifying user name:	WinNT
#	Modification time:	15. 06. 2019 21:00

#	Program:	/corina/corina34_cracker 3.40 0067  02.08.2006

@<TRIPOS>MOLECULE
ASD05430716
  59   63    0    0    0
SMALL
NO_CHARGES


@<TRIPOS>ATOM
   1 C1             0.1469     1.5530    -0.5618 C.2     
   2 C2            -0.2120     0.2336    -0.8686 C.2     
   3 N3            -1.5422    -0.1426    -0.8351 N.pl3   
   4 C4            -2.3753     0.6848    -0.0928 C.2     
   5 N5            -2.1410     2.0431    -0.0386 N.am    
   6 C6            -0.8847     2.5354    -0.2156 C.2     
   7 O7            -0.6323     3.7199    -0.0910 O.2     
   8 C8            -3.2538     2.9631     0.2094 C.3     
   9 C9            -3.0388     3.6749     1.5465 C.3     
  10 C10           -3.3185     3.9831    -0.8980 C.ar    
  11 C11           -3.0738     3.6014    -2.2036 C.ar    
  12 C12           -3.1330     4.5379    -3.2220 C.ar    
  13 C13           -3.4374     5.8567    -2.9319 C.ar    
  14 C14           -3.6822     6.2378    -1.6240 C.ar    
  15 C15           -3.6280     5.2985    -0.6080 C.ar    
  16 N16            1.4831     1.6394    -0.6663 N.2     
  17 C17            1.9581     0.4726    -1.0152 C.2     
  18 N18            0.9283    -0.4208    -1.1493 N.pl3   
  19 F19           -3.9790     7.5247    -1.3394 F       
  20 F20           -2.8934     4.1645    -4.4980 F       
  21 N21           -3.3845     0.1748     0.5560 N.2     
  22 C22           -3.5499    -1.2790     0.6276 C.3     
  23 C23           -2.8552    -2.0133     1.7761 C.3     
  24 C24           -4.3753    -1.8398     1.7875 C.3     
  25 C25           -2.0383    -1.3307    -1.5341 C.3     
  26 Br26           3.7865     0.0786    -1.2933 Br      
  27 C27            2.9808    -3.5885     1.1963 C.ar    
  28 C28            1.9571    -4.1647     1.9343 C.ar    
  29 C29            0.6377    -3.9821     1.5463 C.ar    
  30 C30            0.3464    -3.2270     0.4268 C.ar    
  31 C31            1.3685    -2.6538    -0.3071 C.ar    
  32 C32            2.6842    -2.8346     0.0773 C.ar    
  33 C33            1.0478    -1.8309    -1.5282 C.3     
  34 O34            2.2462    -4.9071     3.0352 O.3     
  35 C35            1.1420    -5.4700     3.7465 C.3     
  36 H36           -4.1881     2.4027     0.2422 H       
  37 H37           -2.1044     4.2353     1.5137 H       
  38 H38           -3.8667     4.3594     1.7310 H       
  39 H39           -2.9919     2.9371     2.3475 H       
  40 H40           -2.8360     2.5725    -2.4296 H       
  41 H41           -3.4834     6.5878    -3.7255 H       
  42 H42           -3.8194     5.5956     0.4126 H       
  43 H43           -3.6154    -1.7926    -0.3316 H       
  44 H44           -2.4640    -3.0101     1.5726 H       
  45 H45           -2.2751    -1.4147     2.4784 H       
  46 H46           -4.7952    -1.1270     2.4972 H       
  47 H47           -4.9841    -2.7224     1.5914 H       
  48 H48           -2.0273    -2.1830    -0.8548 H       
  49 H49           -3.0577    -1.1518    -1.8761 H       
  50 H50           -1.3991    -1.5412    -2.3915 H       
  51 H51            4.0084    -3.7255     1.4989 H       
  52 H52           -0.1610    -4.4299     2.1190 H       
  53 H53           -0.6806    -3.0846     0.1243 H       
  54 H54            3.4808    -2.3859    -0.4976 H       
  55 H55            0.1068    -2.1723    -1.9595 H       
  56 H56            1.8459    -1.9436    -2.2620 H       
  57 H57            1.5113    -6.0370     4.6011 H       
  58 H58            0.4891    -4.6702     4.0958 H       
  59 H59            0.5834    -6.1323     3.0851 H       
@<TRIPOS>BOND
   1    1    2 2
   2    1   16 1
   3    1    6 1
   4    2    3 1
   5    2   18 1
   6    3    4 1
   7    3   25 1
   8    4    5 1
   9    4   21 2
  10    5    6 am
  11    5    8 1
  12    6    7 2
  13    8    9 1
  14    8   10 1
  15    8   36 1
  16    9   37 1
  17    9   38 1
  18    9   39 1
  19   10   11 ar
  20   10   15 ar
  21   11   12 ar
  22   11   40 1
  23   12   13 ar
  24   12   20 1
  25   13   14 ar
  26   13   41 1
  27   14   15 ar
  28   14   19 1
  29   15   42 1
  30   16   17 2
  31   17   18 1
  32   17   26 1
  33   18   33 1
  34   21   22 1
  35   22   23 1
  36   22   24 1
  37   22   43 1
  38   23   24 1
  39   23   44 1
  40   23   45 1
  41   24   46 1
  42   24   47 1
  43   25   48 1
  44   25   49 1
  45   25   50 1
  46   27   28 ar
  47   27   32 ar
  48   27   51 1
  49   28   29 ar
  50   28   34 1
  51   29   30 ar
  52   29   52 1
  53   30   31 ar
  54   30   53 1
  55   31   32 ar
  56   31   33 1
  57   32   54 1
  58   33   55 1
  59   33   56 1
  60   34   35 1
  61   35   57 1
  62   35   58 1
  63   35   59 1

#	End of record

