#	Name: ASD05920002
#	Creating user name:	WinNT
#	Creation time:	15. 06. 2019 21:04

#	Modifying user name:	WinNT
#	Modification time:	15. 06. 2019 21:04

#	Program:	/corina/corina34_cracker 3.40 0067  02.08.2006

@<TRIPOS>MOLECULE
ASD05920002
  58   62    0    0    0
SMALL
NO_CHARGES


@<TRIPOS>ATOM
   1 C1            -0.0170     1.3998     0.0097 C.ar    
   2 C2             0.0021    -0.0041     0.0020 C.ar    
   3 C3            -1.4029    -0.4762     0.0134 C.2     
   4 C4            -2.2645     0.7298     0.0284 C.ar    
   5 C5            -1.4261     1.8561     0.0316 C.ar    
   6 C6             1.1864     2.1008     0.0020 C.ar    
   7 C7             2.3851     1.4148    -0.0131 C.ar    
   8 C8             2.4017     0.0309    -0.0207 C.ar    
   9 C9             1.2172    -0.6806    -0.0136 C.ar    
  10 C10           -3.6456     0.8938     0.0433 C.ar    
  11 C11           -4.1882     2.1645     0.0559 C.ar    
  12 C12           -3.3636     3.2761     0.0533 C.ar    
  13 C13           -1.9901     3.1293     0.0456 C.ar    
  14 S14           -5.9380     2.3707     0.0748 S.o2    
  15 O15           -6.1957     3.6618    -0.4598 O.2     
  16 O16           -6.4883     1.1796    -0.4707 O.2     
  17 N17           -6.4087     2.4193     1.6618 N.am    
  18 C18           -6.4755     3.6950     2.3907 C.3     
  19 C19           -6.7770     1.1885     2.3780 C.3     
  20 C20           -8.1411     1.4018     3.0428 C.3     
  21 N21           -8.0937     2.6129     3.8728 N.3     
  22 C22           -7.8521     3.8046     3.0550 C.3     
  23 N23           -1.8038    -1.7143     0.0107 N.2     
  24 O24           -3.1885    -2.0102     0.0228 O.3     
  25 S25            3.9402    -0.8276    -0.0400 S.o2    
  26 O26            3.6765    -2.1115    -0.5888 O.2     
  27 O27            4.8944     0.0711    -0.5887 O.2     
  28 N28            4.3834    -1.0749     1.5364 N.am    
  29 C29            3.9703    -2.2900     2.2549 C.3     
  30 C30            5.2117    -2.9257     2.8899 C.3     
  31 N31            5.9052    -1.9242     3.7107 N.3     
  32 C32            6.3933    -0.8079     2.8900 C.3     
  33 C33            5.2055    -0.0882     2.2531 C.3     
  34 H34            1.1823     3.1808     0.0075 H       
  35 H35            3.3161     1.9622    -0.0194 H       
  36 H36            1.2350    -1.7605    -0.0195 H       
  37 H37           -4.2929     0.0293     0.0447 H       
  38 H38           -3.7970     4.2652     0.0628 H       
  39 H39           -1.3538     4.0019     0.0436 H       
  40 H40           -5.6976     3.7219     3.1537 H       
  41 H41           -6.3381     4.5222     1.6943 H       
  42 H42           -6.8388     0.3593     1.6732 H       
  43 H43           -6.0285     0.9703     3.1397 H       
  44 H44           -8.9060     1.5169     2.2748 H       
  45 H45           -8.3795     0.5415     3.6681 H       
  46 H46           -8.9390     2.7134     4.4145 H       
  47 H47           -7.8761     4.6914     3.6883 H       
  48 H48           -8.6239     3.8829     2.2894 H       
  49 H49           -3.3886    -2.9562     0.0197 H       
  50 H50            3.2536    -2.0291     3.0336 H       
  51 H51            3.5163    -2.9923     1.5558 H       
  52 H52            4.9102    -3.7646     3.5172 H       
  53 H53            5.8807    -3.2796     2.1055 H       
  54 H54            5.3108    -1.5925     4.4555 H       
  55 H55            6.9488    -0.1108     3.5173 H       
  56 H56            7.0459    -1.1913     2.1056 H       
  57 H57            5.5665     0.6666     1.5545 H       
  58 H58            4.6048     0.3850     3.0298 H       
@<TRIPOS>BOND
   1    1    2 ar
   2    1    6 ar
   3    1    5 1
   4    2    3 1
   5    2    9 ar
   6    3    4 1
   7    3   23 2
   8    4    5 ar
   9    4   10 ar
  10    5   13 ar
  11    6    7 ar
  12    6   34 1
  13    7    8 ar
  14    7   35 1
  15    8    9 ar
  16    8   25 1
  17    9   36 1
  18   10   11 ar
  19   10   37 1
  20   11   12 ar
  21   11   14 1
  22   12   13 ar
  23   12   38 1
  24   13   39 1
  25   14   15 2
  26   14   16 2
  27   14   17 am
  28   17   18 1
  29   17   19 1
  30   18   22 1
  31   18   40 1
  32   18   41 1
  33   19   20 1
  34   19   42 1
  35   19   43 1
  36   20   21 1
  37   20   44 1
  38   20   45 1
  39   21   22 1
  40   21   46 1
  41   22   47 1
  42   22   48 1
  43   23   24 1
  44   24   49 1
  45   25   26 2
  46   25   27 2
  47   25   28 am
  48   28   29 1
  49   28   33 1
  50   29   30 1
  51   29   50 1
  52   29   51 1
  53   30   31 1
  54   30   52 1
  55   30   53 1
  56   31   32 1
  57   31   54 1
  58   32   33 1
  59   32   55 1
  60   32   56 1
  61   33   57 1
  62   33   58 1

#	End of record

