#	Name: ASD03740049
#	Creating user name:	WinNT
#	Creation time:	15. 06. 2019 20:46

#	Modifying user name:	WinNT
#	Modification time:	15. 06. 2019 20:46

#	Program:	/corina/corina34_cracker 3.40 0067  02.08.2006

@<TRIPOS>MOLECULE
ASD03740049
  28   30    0    0    0
SMALL
NO_CHARGES


@<TRIPOS>ATOM
   1 C1            -0.0168     1.3850     0.0097 C.ar    
   2 C2             0.0021    -0.0041     0.0020 C.ar    
   3 C3             1.1848    -0.6879    -0.0130 C.ar    
   4 C4             2.3893     0.0108    -0.0208 C.ar    
   5 C5             2.3723     1.4192    -0.0131 C.ar    
   6 C6             1.1482     2.0964     0.0024 C.ar    
   7 N7             3.7063    -0.3677    -0.0359 N.pl3   
   8 N8             4.5108     0.7765    -0.0377 N.2     
   9 C9             3.7677     1.8460    -0.0246 C.2     
  10 C10            4.1935    -1.7493    -0.0477 C.3     
  11 C11            4.3463    -2.2159    -1.4725 C.ar    
  12 C12            5.5455    -2.0316    -2.1351 C.ar    
  13 C13            5.6863    -2.4598    -3.4417 C.ar    
  14 C14            4.6270    -3.0729    -4.0863 C.ar    
  15 C15            3.4273    -3.2570    -3.4229 C.ar    
  16 C16            3.2891    -2.8332    -2.1145 C.ar    
  17 Br17           4.8188    -3.6584    -5.8741 Br      
  18 H18           -0.9622     1.9070     0.0170 H       
  19 H19           -0.9297    -0.5502     0.0084 H       
  20 H20            1.1856    -1.7678    -0.0184 H       
  21 H21            1.1251     3.1761     0.0080 H       
  22 H22            4.1212     2.8665    -0.0227 H       
  23 H23            5.1588    -1.7985     0.4563 H       
  24 H24            3.4802    -2.3905     0.4701 H       
  25 H25            6.3724    -1.5527    -1.6318 H       
  26 H26            6.6231    -2.3155    -3.9594 H       
  27 H27            2.5999    -3.7353    -3.9259 H       
  28 H28            2.3525    -2.9770    -1.5965 H       
@<TRIPOS>BOND
   1    1    2 ar
   2    1    6 ar
   3    1   18 1
   4    2    3 ar
   5    2   19 1
   6    3    4 ar
   7    3   20 1
   8    4    5 ar
   9    4    7 1
  10    5    6 ar
  11    5    9 1
  12    6   21 1
  13    7    8 1
  14    7   10 1
  15    8    9 2
  16    9   22 1
  17   10   11 1
  18   10   23 1
  19   10   24 1
  20   11   12 ar
  21   11   16 ar
  22   12   13 ar
  23   12   25 1
  24   13   14 ar
  25   13   26 1
  26   14   15 ar
  27   14   17 1
  28   15   16 ar
  29   15   27 1
  30   16   28 1

#	End of record

