#	Name: ASD05313012
#	Creating user name:	WinNT
#	Creation time:	15. 06. 2019 20:58

#	Modifying user name:	WinNT
#	Modification time:	15. 06. 2019 20:58

#	Program:	/corina/corina34_cracker 3.40 0067  02.08.2006

@<TRIPOS>MOLECULE
ASD05313012
  29   31    0    0    0
SMALL
NO_CHARGES


@<TRIPOS>ATOM
   1 C1            -0.0184     1.5054     0.0103 C.2     
   2 C2             0.0021    -0.0041     0.0020 C.3     
   3 N3             1.1061     2.2770     0.0037 N.pl3   
   4 N4             1.3915    -0.4130    -0.2788 N.am    
   5 C5             2.4774     0.2991     0.4116 C.3     
   6 C6             2.4766     1.7692    -0.0245 C.3     
   7 N7            -0.6312     3.5273     0.0371 N.2     
   8 N8            -1.0392     2.3045     0.0298 N.2     
   9 C9             0.6776     3.5606     0.0237 C.2     
  10 C10            1.6582    -1.4118    -1.1436 C.2     
  11 O11            2.8096    -1.7350    -1.3626 O.2     
  12 C12            0.5522    -2.1132    -1.8251 C.ar    
  13 C13           -0.0257    -3.2451    -1.2432 C.ar    
  14 C14           -1.0594    -3.8960    -1.8860 C.ar    
  15 C15           -1.5237    -3.4303    -3.1047 C.ar    
  16 C16           -0.9559    -2.3094    -3.6870 C.ar    
  17 C17            0.0743    -1.6450    -3.0524 C.ar    
  18 Cl18           0.7795    -0.2356    -3.7804 Cl      
  19 Cl19          -2.8234    -4.2557    -3.9066 Cl      
  20 Cl20           0.5556    -3.8313     0.2839 Cl      
  21 Br21           1.7634     5.1087     0.0351 Br      
  22 H22           -0.3089    -0.3858     0.9745 H       
  23 H23           -0.6614    -0.3810    -0.7764 H       
  24 H24            2.3244     0.2391     1.4891 H       
  25 H25            3.4333    -0.1566     0.1533 H       
  26 H26            2.8739     1.8491    -1.0363 H       
  27 H27            3.0952     2.3520     0.6580 H       
  28 H28           -1.5068    -4.7707    -1.4376 H       
  29 H29           -1.3227    -1.9519    -4.6377 H       
@<TRIPOS>BOND
   1    1    2 1
   2    1    3 1
   3    1    8 2
   4    2    4 1
   5    2   22 1
   6    2   23 1
   7    3    6 1
   8    3    9 1
   9    4    5 1
  10    4   10 am
  11    5    6 1
  12    5   24 1
  13    5   25 1
  14    6   26 1
  15    6   27 1
  16    7    8 1
  17    7    9 2
  18    9   21 1
  19   10   11 2
  20   10   12 1
  21   12   13 ar
  22   12   17 ar
  23   13   14 ar
  24   13   20 1
  25   14   15 ar
  26   14   28 1
  27   15   16 ar
  28   15   19 1
  29   16   17 ar
  30   16   29 1
  31   17   18 1

#	End of record

