#	Name: ASD02560168
#	Creating user name:	WinNT
#	Creation time:	15. 06. 2019 20:24

#	Modifying user name:	WinNT
#	Modification time:	15. 06. 2019 20:24

#	Program:	/corina/corina34_cracker 3.40 0067  02.08.2006

@<TRIPOS>MOLECULE
ASD02560168
  50   53    0    0    0
SMALL
NO_CHARGES


@<TRIPOS>ATOM
   1 Br1            1.7289     2.5464    -1.4937 Br      
   2 N2             0.0576     1.3574     0.4623 N.2     
   3 N3            -0.1784     0.1616     0.2635 N.2     
   4 C4             1.4776     1.6622     0.2441 C.3     
   5 N5             2.1542     0.3406     0.2545 N.3     
   6 C6             1.0386    -0.5626    -0.1256 C.3     
   7 S7             1.1580    -2.1298     0.7801 S.3     
   8 C8             1.0578    -1.6075     2.5144 C.3     
   9 C9             1.1441    -2.8170     3.4091 C.2     
  10 O10            1.2617    -3.9227     2.9244 O.2     
  11 N11            1.0907    -2.6703     4.7478 N.am    
  12 C12            3.1801     0.2957    -0.6935 C.ar    
  13 C13            1.1047    -3.7982     5.5766 C.ar    
  14 C14            0.4523    -3.7690     6.8036 C.ar    
  15 C15            0.4679    -4.8846     7.6190 C.ar    
  16 C16            1.1316    -6.0287     7.2149 C.ar    
  17 C17            1.7813    -6.0603     5.9949 C.ar    
  18 C18            1.7652    -4.9502     5.1726 C.ar    
  19 Cl19          -0.3805    -2.3329     7.3114 Cl      
  20 S20            1.1497    -7.4490     8.2575 S.o2    
  21 O21            2.2939    -8.2051     7.8856 O.2     
  22 O22            0.9247    -6.9791     9.5796 O.2     
  23 C23            4.2292     1.2049    -0.6280 C.ar    
  24 C24            3.1565    -0.6612    -1.6998 C.ar    
  25 C25            4.1719    -0.7029    -2.6352 C.ar    
  26 C26            5.2118     0.2064    -2.5707 C.ar    
  27 C27            5.2419     1.1574    -1.5674 C.ar    
  28 Cl28           4.2674     2.3990     0.6315 Cl      
  29 N29           -0.1684    -8.3679     7.8571 N.am    
  30 C30            6.3179     0.1571    -3.5931 C.3     
  31 C31            6.5358     1.3997    -4.4587 C.3     
  32 C32            7.5382     1.0494    -3.3573 C.3     
  33 H33            1.8590     2.2902     1.0492 H       
  34 H34            1.0457    -0.7429    -1.2005 H       
  35 H35            1.8822    -0.9304     2.7382 H       
  36 H36            0.1107    -1.0958     2.6856 H       
  37 H37            1.0426    -1.7830     5.1368 H       
  38 H38           -0.0384    -4.8629     8.5727 H       
  39 H39            2.2989    -6.9553     5.6827 H       
  40 H40            2.2730    -4.9760     4.2198 H       
  41 H41            2.3452    -1.3722    -1.7507 H       
  42 H42            4.1538    -1.4468    -3.4178 H       
  43 H43            6.0554     1.8662    -1.5201 H       
  44 H44           -0.7708    -8.0725     7.1564 H       
  45 H45           -0.3382    -9.2014     8.3231 H       
  46 H46            6.4868    -0.8150    -4.0564 H       
  47 H47            6.8483     1.2452    -5.4914 H       
  48 H48            5.8790     2.2529    -4.2888 H       
  49 H49            7.5410     1.6721    -2.4626 H       
  50 H50            8.5103     0.6644    -3.6653 H       
@<TRIPOS>BOND
   1    1    4 1
   2    2    3 2
   3    2    4 1
   4    3    6 1
   5    4    5 1
   6    4   33 1
   7    5    6 1
   8    5   12 1
   9    6    7 1
  10    6   34 1
  11    7    8 1
  12    8    9 1
  13    8   35 1
  14    8   36 1
  15    9   10 2
  16    9   11 am
  17   11   13 1
  18   11   37 1
  19   12   23 ar
  20   12   24 ar
  21   13   14 ar
  22   13   18 ar
  23   14   15 ar
  24   14   19 1
  25   15   16 ar
  26   15   38 1
  27   16   17 ar
  28   16   20 1
  29   17   18 ar
  30   17   39 1
  31   18   40 1
  32   20   21 2
  33   20   22 2
  34   20   29 am
  35   23   27 ar
  36   23   28 1
  37   24   25 ar
  38   24   41 1
  39   25   26 ar
  40   25   42 1
  41   26   27 ar
  42   26   30 1
  43   27   43 1
  44   29   44 1
  45   29   45 1
  46   30   31 1
  47   30   32 1
  48   30   46 1
  49   31   32 1
  50   31   47 1
  51   31   48 1
  52   32   49 1
  53   32   50 1

#	End of record

