#	Name: ASD01410968
#	Creating user name:	WinNT
#	Creation time:	15. 06. 2019 19:19

#	Modifying user name:	WinNT
#	Modification time:	15. 06. 2019 19:19

#	Program:	/corina/corina34_cracker 3.40 0067  02.08.2006

@<TRIPOS>MOLECULE
ASD01410968
  61   64    0    0    0
SMALL
NO_CHARGES


@<TRIPOS>ATOM
   1 C1             0.3701     1.8049    -0.2897 C.ar    
   2 P2             0.2076     0.0027    -0.4175 P.3     
   3 N3             0.1500    -0.6490     1.0863 N.pl3   
   4 O4            -1.0362    -0.3299    -1.1474 O.2     
   5 C5             0.1330    -2.0318     1.2454 C.2     
   6 C6             0.2280    -2.6422     2.4748 C.2     
   7 S7             0.1702    -4.3878     2.2727 S.3     
   8 C8             0.0196    -4.2208     0.5293 C.2     
   9 C9             0.0140    -2.9026     0.1873 C.2     
  10 C10            0.3527    -1.9696     3.7099 C.2     
  11 O11            0.3831    -0.7529     3.7401 O.2     
  12 O12            0.4382    -2.6758     4.8575 O.3     
  13 C13           -0.0904    -5.3448    -0.4239 C.ar    
  14 C14           -0.1875    -6.6556     0.0464 C.ar    
  15 C15           -0.2899    -7.7004    -0.8481 C.ar    
  16 C16           -0.2961    -7.4512    -2.2104 C.ar    
  17 C17           -0.1996    -6.1531    -2.6830 C.ar    
  18 C18           -0.1034    -5.0994    -1.7981 C.ar    
  19 O19            1.4730    -0.5951    -1.2134 O.3     
  20 C20            1.7964    -0.2216    -2.5543 C.3     
  21 Cl21          -0.4247    -8.7716    -3.3301 Cl      
  22 C22           -0.7512     2.6084    -0.3830 C.ar    
  23 C23           -0.6274     3.9815    -0.2857 C.ar    
  24 C24            0.6176     4.5516    -0.0946 C.ar    
  25 C25            1.7384     3.7483    -0.0004 C.ar    
  26 C26            1.6140     2.3745    -0.0934 C.ar    
  27 C27            2.8354     1.4983     0.0145 C.3     
  28 C28            0.7527     6.0488     0.0105 C.3     
  29 C29            3.0517    -0.9718    -3.0041 C.3     
  30 C30            3.3284    -0.6690    -4.4799 C.3     
  31 C31            4.6285    -1.3600    -4.8995 C.3     
  32 O32            5.6961    -0.9126    -4.0615 O.3     
  33 C33            5.5144    -1.2108    -2.6758 C.3     
  34 C34            4.2499    -0.5138    -2.1668 C.3     
  35 H35            0.1278    -0.0709     1.8649 H       
  36 H36           -0.0735    -2.5672    -0.8355 H       
  37 H37            0.5209    -2.1288     5.6507 H       
  38 H38           -0.1821    -6.8511     1.1085 H       
  39 H39           -0.3651    -8.7149    -0.4855 H       
  40 H40           -0.2046    -5.9650    -3.7464 H       
  41 H41           -0.0334    -4.0871    -2.1677 H       
  42 H42            0.9657    -0.4759    -3.2126 H       
  43 H43            1.9794     0.8520    -2.5983 H       
  44 H44           -1.7237     2.1631    -0.5323 H       
  45 H45           -1.5032     4.6092    -0.3593 H       
  46 H46            2.7110     4.1936     0.1485 H       
  47 H47            3.2326     1.3043    -0.9818 H       
  48 H48            3.5921     2.0023     0.6156 H       
  49 H49            2.5647     0.5544     0.4878 H       
  50 H50            0.6565     6.3500     1.0537 H       
  51 H51            1.7291     6.3529    -0.3668 H       
  52 H52           -0.0296     6.5265    -0.5792 H       
  53 H53            2.9024    -2.0436    -2.8735 H       
  54 H54            2.5048    -1.0417    -5.0889 H       
  55 H55            3.4270     0.4077    -4.6185 H       
  56 H56            4.5153    -2.4394    -4.7989 H       
  57 H57            4.8529    -1.1130    -5.9371 H       
  58 H58            5.4127    -2.2883    -2.5461 H       
  59 H59            6.3770    -0.8564    -2.1115 H       
  60 H60            4.3671     0.5660    -2.2588 H       
  61 H61            4.0853    -0.7756    -1.1216 H       
@<TRIPOS>BOND
   1    1    2 1
   2    1   22 ar
   3    1   26 ar
   4    2    3 1
   5    2    4 2
   6    2   19 1
   7    3    5 1
   8    3   35 1
   9    5    6 2
  10    5    9 1
  11    6    7 1
  12    6   10 1
  13    7    8 1
  14    8    9 2
  15    8   13 1
  16    9   36 1
  17   10   11 2
  18   10   12 1
  19   12   37 1
  20   13   14 ar
  21   13   18 ar
  22   14   15 ar
  23   14   38 1
  24   15   16 ar
  25   15   39 1
  26   16   17 ar
  27   16   21 1
  28   17   18 ar
  29   17   40 1
  30   18   41 1
  31   19   20 1
  32   20   29 1
  33   20   42 1
  34   20   43 1
  35   22   23 ar
  36   22   44 1
  37   23   24 ar
  38   23   45 1
  39   24   25 ar
  40   24   28 1
  41   25   26 ar
  42   25   46 1
  43   26   27 1
  44   27   47 1
  45   27   48 1
  46   27   49 1
  47   28   50 1
  48   28   51 1
  49   28   52 1
  50   29   30 1
  51   29   34 1
  52   29   53 1
  53   30   31 1
  54   30   54 1
  55   30   55 1
  56   31   32 1
  57   31   56 1
  58   31   57 1
  59   32   33 1
  60   33   34 1
  61   33   58 1
  62   33   59 1
  63   34   60 1
  64   34   61 1

#	End of record

