#	Name: ASD01202004
#	Creating user name:	WinNT
#	Creation time:	15. 06. 2019 19:09

#	Modifying user name:	WinNT
#	Modification time:	15. 06. 2019 19:09

#	Program:	/corina/corina34_cracker 3.40 0067  02.08.2006

@<TRIPOS>MOLECULE
ASD01202004
  35   37    0    0    0
SMALL
NO_CHARGES


@<TRIPOS>ATOM
   1 C1            -0.0179     1.4661     0.0101 C.2     
   2 C2             0.0021    -0.0041     0.0020 C.2     
   3 C3             1.2911     1.8511    -0.0003 C.2     
   4 C4            -1.2035     2.3407     0.0207 C.2     
   5 C5             1.2970    -0.3553    -0.0122 C.2     
   6 O6             2.0534     0.7533    -0.0135 O.3     
   7 O7            -1.0676     3.5493     0.0262 O.2     
   8 N8            -2.4387     1.8015     0.0244 N.am    
   9 C9             1.8187    -1.7691    -0.0240 C.3     
  10 C10           -3.5565     2.6261     0.0344 C.2     
  11 N11           -3.5237     3.9183     0.0352 N.2     
  12 S12           -5.1759     2.0803     0.0401 S.3     
  13 C13           -4.6833     4.5646     0.0449 C.2     
  14 C14           -5.7477     3.7435     0.0507 C.2     
  15 C15           -4.8151     6.0803     0.0479 C.3     
  16 C16           -7.1909     4.1888     0.0602 C.3     
  17 C17           -6.2379     6.4511    -0.3761 C.3     
  18 C18           -7.2444     5.6645     0.4705 C.3     
  19 H19           -2.5471     0.8376     0.0201 H       
  20 C20            1.7920     3.2724     0.0025 C.3     
  21 H21           -0.8513    -0.6660     0.0069 H       
  22 H22            1.9345    -2.1050    -1.0545 H       
  23 H23            2.7844    -1.8042     0.4803 H       
  24 H24            1.1146    -2.4205     0.4935 H       
  25 H25           -4.6212     6.4621     1.0503 H       
  26 H26           -4.1007     6.5107    -0.6539 H       
  27 H27           -7.6196     4.0698    -0.9348 H       
  28 H28           -7.7516     3.5891     0.7772 H       
  29 H29           -6.3944     7.5197    -0.2282 H       
  30 H30           -6.3793     6.2052    -1.4285 H       
  31 H31           -8.2475     6.0548     0.2983 H       
  32 H32           -6.9908     5.7591     1.5263 H       
  33 H33            1.9226     3.6096     1.0308 H       
  34 H34            2.7472     3.3220    -0.5202 H       
  35 H35            1.0685     3.9136    -0.5010 H       
@<TRIPOS>BOND
   1    1    2 1
   2    1    3 2
   3    1    4 1
   4    2    5 2
   5    2   21 1
   6    3    6 1
   7    3   20 1
   8    4    7 2
   9    4    8 am
  10    5    6 1
  11    5    9 1
  12    8   10 1
  13    8   19 1
  14    9   22 1
  15    9   23 1
  16    9   24 1
  17   10   12 1
  18   10   11 2
  19   11   13 1
  20   12   14 1
  21   13   14 2
  22   13   15 1
  23   14   16 1
  24   15   17 1
  25   15   25 1
  26   15   26 1
  27   16   18 1
  28   16   27 1
  29   16   28 1
  30   17   18 1
  31   17   29 1
  32   17   30 1
  33   18   31 1
  34   18   32 1
  35   20   33 1
  36   20   34 1
  37   20   35 1

#	End of record

