#	Name: ASD08178212
#	Creating user name:	WinNT
#	Creation time:	15. 06. 2019 21:18

#	Modifying user name:	WinNT
#	Modification time:	15. 06. 2019 21:18

#	Program:	/corina/corina34_cracker 3.40 0067  02.08.2006

@<TRIPOS>MOLECULE
ASD08178212
  47   49    0    0    0
SMALL
NO_CHARGES


@<TRIPOS>ATOM
   1 C1            -0.0184     1.5028     0.0103 C.ar    
   2 C2             0.0021    -0.0041     0.0020 C.3     
   3 C3            -0.8070    -0.5316     1.1886 C.3     
   4 C4            -0.7862    -2.0615     1.1802 C.3     
   5 C5            -1.5953    -2.5890     2.3668 C.3     
   6 C6            -1.5749    -4.0958     2.3585 C.2     
   7 N7            -0.7024    -4.8513     2.9464 N.2     
   8 N8            -0.8584    -6.0978     2.8208 N.2     
   9 C9            -1.8706    -6.5111     2.1196 C.2     
  10 S10           -2.7393    -5.1477     1.5527 S.3     
  11 N11           -2.1982    -7.8403     1.8745 N.am    
  12 C12           -1.4351    -8.8275     2.3840 C.2     
  13 C13           -1.7900   -10.2678     2.1183 C.3     
  14 O14           -0.4626    -8.5566     3.0562 O.2     
  15 C15           -1.6534   -10.5554     0.6453 C.ar    
  16 C16           -2.7594   -10.4745    -0.1800 C.ar    
  17 C17           -2.6339   -10.7386    -1.5321 C.ar    
  18 C18           -1.4011   -11.0835    -2.0575 C.ar    
  19 C19           -0.2962   -11.1639    -1.2314 C.ar    
  20 C20           -0.4212   -10.8944     0.1189 C.ar    
  21 C21            1.1743     2.2130     0.0027 C.ar    
  22 C22            1.1083     3.5970     0.0108 C.ar    
  23 C23           -0.1539     4.1902     0.0260 C.ar    
  24 N24           -1.2373     3.4276     0.0323 N.ar    
  25 N25           -1.1686     2.1460     0.0193 N.ar    
  26 N26           -0.2747     5.5754     0.0351 N.pl3   
  27 Cl27          -4.0224   -10.6378    -2.5691 Cl      
  28 O28           -0.9087   -11.1190     2.8536 O.3     
  29 H29           -0.4361    -0.3683    -0.9272 H       
  30 H30            1.0315    -0.3539     0.0799 H       
  31 H31           -0.3688    -0.1674     2.1178 H       
  32 H32           -1.8364    -0.1818     1.1107 H       
  33 H33           -1.2245    -2.4257     0.2510 H       
  34 H34            0.2431    -2.4113     1.2581 H       
  35 H35           -1.1571    -2.2248     3.2960 H       
  36 H36           -2.6247    -2.2392     2.2889 H       
  37 H37           -2.9760    -8.0569     1.3368 H       
  38 H38           -2.8179   -10.4522     2.4307 H       
  39 H39           -3.7214   -10.2056     0.2307 H       
  40 H40           -1.3026   -11.2900    -3.1130 H       
  41 H41            0.6660   -11.4331    -1.6415 H       
  42 H42            0.4426   -10.9572     0.7641 H       
  43 H43            2.1257     1.7019    -0.0087 H       
  44 H44            2.0060     4.1975     0.0058 H       
  45 H45            0.5200     6.1316     0.0308 H       
  46 H46           -1.1537     5.9856     0.0457 H       
  47 H47            0.0249   -11.0087     2.6267 H       
@<TRIPOS>BOND
   1    1    2 1
   2    1   21 ar
   3    1   25 ar
   4    2    3 1
   5    2   29 1
   6    2   30 1
   7    3    4 1
   8    3   31 1
   9    3   32 1
  10    4    5 1
  11    4   33 1
  12    4   34 1
  13    5    6 1
  14    5   35 1
  15    5   36 1
  16    6    7 2
  17    6   10 1
  18    7    8 1
  19    8    9 2
  20    9   10 1
  21    9   11 1
  22   11   12 am
  23   11   37 1
  24   12   13 1
  25   12   14 2
  26   13   15 1
  27   13   28 1
  28   13   38 1
  29   15   16 ar
  30   15   20 ar
  31   16   17 ar
  32   16   39 1
  33   17   18 ar
  34   17   27 1
  35   18   19 ar
  36   18   40 1
  37   19   20 ar
  38   19   41 1
  39   20   42 1
  40   21   22 ar
  41   21   43 1
  42   22   23 ar
  43   22   44 1
  44   23   24 ar
  45   23   26 1
  46   24   25 ar
  47   26   45 1
  48   26   46 1
  49   28   47 1

#	End of record

