#	Name: ASD03930247
#	Creating user name:	WinNT
#	Creation time:	15. 06. 2019 20:47

#	Modifying user name:	WinNT
#	Modification time:	15. 06. 2019 20:47

#	Program:	/corina/corina34_cracker 3.40 0067  02.08.2006

@<TRIPOS>MOLECULE
ASD03930247
  34   36    0    0    0
SMALL
NO_CHARGES


@<TRIPOS>ATOM
   1 N1            -0.0428     1.7775     0.1997 N.2     
   2 O2            -0.1428     2.8098     0.8324 O.3     
   3 N3             0.8972     3.3677     1.1201 N.2     
   4 C4             1.9020     2.6716     0.6469 C.ar    
   5 C5             1.2241     1.5283    -0.0148 C.ar    
   6 C6             3.3066     2.7346     0.6150 C.ar    
   7 C7             4.0202     1.7439    -0.0233 C.ar    
   8 C8             3.3872     0.6523    -0.6558 C.ar    
   9 C9             2.0398     0.5195    -0.6688 C.ar    
  10 C10            5.4957     1.8272    -0.0470 C.2     
  11 O11            6.1628     0.8130     0.0171 O.2     
  12 N12            6.1015     3.0275    -0.1396 N.am    
  13 O13            9.9193     4.7179    -0.0372 O.3     
  14 C14            9.6433     3.8929    -1.1709 C.3     
  15 C15            8.1291     3.7249    -1.3214 C.3     
  16 C16            7.5596     3.1222    -0.0335 C.3     
  17 C17            7.9298     4.0254     1.1471 C.3     
  18 C18            9.4517     4.1818     1.2022 C.3     
  19 C19            5.3020     4.2375    -0.3465 C.3     
  20 H20            3.8235     3.5561     1.0885 H       
  21 H21            3.9939    -0.0971    -1.1424 H       
  22 H22            1.5777    -0.3247    -1.1588 H       
  23 H23           10.0481     4.3610    -2.0682 H       
  24 H24           10.1053     2.9157    -1.0305 H       
  25 H25            7.6709     4.6972    -1.5022 H       
  26 H26            7.9178     3.0602    -2.1590 H       
  27 H27            7.9793     2.1282     0.1206 H       
  28 H28            7.4676     5.0038     1.0161 H       
  29 H29            7.5760     3.5756     2.0748 H       
  30 H30            9.9112     3.2084     1.3737 H       
  31 H31            9.7184     4.8580     2.0144 H       
  32 H32            4.9533     4.6116     0.6161 H       
  33 H33            5.9132     4.9982    -0.8322 H       
  34 H34            4.4446     4.0030    -0.9774 H       
@<TRIPOS>BOND
   1    1    2 1
   2    1    5 2
   3    2    3 1
   4    3    4 2
   5    4    5 ar
   6    4    6 ar
   7    5    9 ar
   8    6    7 ar
   9    6   20 1
  10    7    8 ar
  11    7   10 1
  12    8    9 ar
  13    8   21 1
  14    9   22 1
  15   10   11 2
  16   10   12 am
  17   12   16 1
  18   12   19 1
  19   13   14 1
  20   13   18 1
  21   14   15 1
  22   14   23 1
  23   14   24 1
  24   15   16 1
  25   15   25 1
  26   15   26 1
  27   16   17 1
  28   16   27 1
  29   17   18 1
  30   17   28 1
  31   17   29 1
  32   18   30 1
  33   18   31 1
  34   19   32 1
  35   19   33 1
  36   19   34 1

#	End of record

