#	Name: ASD01890392
#	Creating user name:	WinNT
#	Creation time:	15. 06. 2019 19:50

#	Modifying user name:	WinNT
#	Modification time:	15. 06. 2019 19:50

#	Program:	/corina/corina34_cracker 3.40 0067  02.08.2006

@<TRIPOS>MOLECULE
ASD01890392
  39   41    0    0    0
SMALL
NO_CHARGES


@<TRIPOS>ATOM
   1 C1            -0.6104    -0.3062    -1.3691 C.2     
   2 C2             0.0516     0.0759    -0.0703 C.3     
   3 C3             1.4175    -0.6065     0.0260 C.3     
   4 C4             2.1534    -0.1015     1.2687 C.3     
   5 O5            -0.0064    -0.9611    -2.1852 O.2     
   6 O6            -1.8730     0.0764    -1.6168 O.3     
   7 N7             1.6383     2.2414     1.6227 N.ar    
   8 C8             2.4657     1.3639     1.1068 C.ar    
   9 N9             3.5628     1.7078     0.4507 N.ar    
  10 C10            3.8945     2.9776     0.2740 C.ar    
  11 C11            3.0421     3.9716     0.8073 C.ar    
  12 C12            3.3139     5.3381     0.6692 C.ar    
  13 C13            2.4549     6.2510     1.2054 C.ar    
  14 C14            1.3118     5.8430     1.8879 C.ar    
  15 C15            1.0184     4.5207     2.0399 C.ar    
  16 C16            1.8795     3.5545     1.5015 C.ar    
  17 O17            5.0190     3.3147    -0.3982 O.3     
  18 C18            1.2279    -2.0982     0.1260 C.ar    
  19 C19            1.7705    -2.9297    -0.8360 C.ar    
  20 C20            1.5969    -4.2978    -0.7448 C.ar    
  21 C21            0.8799    -4.8352     0.3094 C.ar    
  22 C22            0.3371    -4.0025     1.2718 C.ar    
  23 C23            0.5162    -2.6349     1.1826 C.ar    
  24 Cl24           0.6610    -6.5535     0.4243 Cl      
  25 H25            0.1823     1.1574    -0.0336 H       
  26 H26           -0.5736    -0.2430     0.7637 H       
  27 H27            2.0036    -0.3735    -0.8630 H       
  28 H28            1.5237    -0.2440     2.1469 H       
  29 H29            3.0817    -0.6592     1.3929 H       
  30 H30           -2.2551    -0.1925    -2.4635 H       
  31 H31            4.1976     5.6666     0.1422 H       
  32 H32            2.6640     7.3053     1.0996 H       
  33 H33            0.6474     6.5860     2.3037 H       
  34 H34            0.1283     4.2193     2.5721 H       
  35 H35            4.8896     3.4266    -1.3499 H       
  36 H36            2.3298    -2.5101    -1.6590 H       
  37 H37            2.0205    -4.9473    -1.4966 H       
  38 H38           -0.2226    -4.4214     2.0950 H       
  39 H39            0.0963    -1.9851     1.9362 H       
@<TRIPOS>BOND
   1    1    2 1
   2    1    5 2
   3    1    6 1
   4    2    3 1
   5    2   25 1
   6    2   26 1
   7    3    4 1
   8    3   18 1
   9    3   27 1
  10    4    8 1
  11    4   28 1
  12    4   29 1
  13    6   30 1
  14    7    8 ar
  15    7   16 ar
  16    8    9 ar
  17    9   10 ar
  18   10   11 ar
  19   10   17 1
  20   11   12 ar
  21   11   16 ar
  22   12   13 ar
  23   12   31 1
  24   13   14 ar
  25   13   32 1
  26   14   15 ar
  27   14   33 1
  28   15   16 ar
  29   15   34 1
  30   17   35 1
  31   18   19 ar
  32   18   23 ar
  33   19   20 ar
  34   19   36 1
  35   20   21 ar
  36   20   37 1
  37   21   22 ar
  38   21   24 1
  39   22   23 ar
  40   22   38 1
  41   23   39 1

#	End of record

