#	Name: ASD02500880
#	Creating user name:	WinNT
#	Creation time:	15. 06. 2019 20:23

#	Modifying user name:	WinNT
#	Modification time:	15. 06. 2019 20:23

#	Program:	/corina/corina34_cracker 3.40 0067  02.08.2006

@<TRIPOS>MOLECULE
ASD02500880
  34   35    0    0    0
SMALL
NO_CHARGES


@<TRIPOS>ATOM
   1 S1             0.0084     1.6856     0.6204 S.3     
   2 C2             0.0077    -0.0564     0.2807 C.2     
   3 C3             1.4227    -0.4364     0.3630 C.2     
   4 N4             2.2509     0.5547     0.6478 N.am    
   5 C5             1.7647     1.7871     0.8344 C.2     
   6 S6             2.6669     3.1934     1.2078 S.2     
   7 C7            -1.0566    -0.8536     0.0080 C.2     
   8 O8             1.8054    -1.5778     0.1831 O.2     
   9 C9             3.6902     0.3047     0.7586 C.3     
  10 C10            4.4249     1.1397    -0.2583 C.2     
  11 O11            3.8094     1.8687    -0.9996 O.2     
  12 O12            5.7630     1.0734    -0.3406 O.3     
  13 C13           -2.4209    -0.3257     0.1346 C.ar    
  14 C14           -3.4798    -0.9454    -0.5407 C.ar    
  15 C15           -4.7570    -0.4465    -0.4180 C.ar    
  16 C16           -4.9965     0.6705     0.3741 C.ar    
  17 C17           -3.9492     1.2899     1.0463 C.ar    
  18 C18           -2.6690     0.7958     0.9357 C.ar    
  19 O19           -6.2580     1.1587     0.4912 O.3     
  20 C20           -6.4342     2.3089     1.3207 C.3     
  21 C21            4.1658     0.6776     2.1642 C.3     
  22 H22           -0.8999    -1.8762    -0.3022 H       
  23 H23            3.8908    -0.7509     0.5753 H       
  24 H24            6.1897     1.6275    -1.0083 H       
  25 H25           -3.2947    -1.8129    -1.1568 H       
  26 H26           -5.5743    -0.9236    -0.9383 H       
  27 H27           -4.1408     2.1577     1.6600 H       
  28 H28           -1.8560     1.2778     1.4584 H       
  29 H29           -7.4861     2.5945     1.3271 H       
  30 H30           -6.1145     2.0766     2.3365 H       
  31 H31           -5.8363     3.1328     0.9311 H       
  32 H32            3.9652     1.7332     2.3475 H       
  33 H33            3.6345     0.0737     2.8997 H       
  34 H34            5.2367     0.4916     2.2467 H       
@<TRIPOS>BOND
   1    1    2 1
   2    1    5 1
   3    2    3 1
   4    2    7 2
   5    3    4 am
   6    3    8 2
   7    4    5 am
   8    4    9 1
   9    5    6 2
  10    7   13 1
  11    7   22 1
  12    9   10 1
  13    9   21 1
  14    9   23 1
  15   10   11 2
  16   10   12 1
  17   12   24 1
  18   13   14 ar
  19   13   18 ar
  20   14   15 ar
  21   14   25 1
  22   15   16 ar
  23   15   26 1
  24   16   17 ar
  25   16   19 1
  26   17   18 ar
  27   17   27 1
  28   18   28 1
  29   19   20 1
  30   20   29 1
  31   20   30 1
  32   20   31 1
  33   21   32 1
  34   21   33 1
  35   21   34 1

#	End of record

