#	Name: ASD01530064
#	Creating user name:	WinNT
#	Creation time:	15. 06. 2019 19:22

#	Modifying user name:	WinNT
#	Modification time:	15. 06. 2019 19:22

#	Program:	/corina/corina34_cracker 3.40 0067  02.08.2006

@<TRIPOS>MOLECULE
ASD01530064
  51   54    0    0    0
SMALL
NO_CHARGES


@<TRIPOS>ATOM
   1 C1            -0.0169     1.3930     0.0097 C.ar    
   2 C2             0.0021    -0.0041     0.0020 C.ar    
   3 C3             1.2238    -0.6797    -0.0133 C.ar    
   4 C4             2.4048     0.0348    -0.0208 C.ar    
   5 C5             1.1682     2.0932     0.0021 C.ar    
   6 C6             1.4819     3.5715     0.0076 C.3     
   7 C7             2.3794     1.4155    -0.0126 C.ar    
   8 C8             3.4747     2.4570    -0.0175 C.3     
   9 O9             2.8574     3.6825     0.4166 O.3     
  10 C10            4.5714     2.0615     0.9374 C.ar    
  11 C11            4.0387     2.6223    -1.4301 C.3     
  12 C12            5.2267     3.5857    -1.3954 C.3     
  13 C13            5.7907     3.7510    -2.8080 C.3     
  14 N14            6.9314     4.6761    -2.7747 N.3     
  15 C15            7.6450     4.6784    -4.0587 C.3     
  16 C16            6.4992     6.0319    -2.4101 C.3     
  17 C17           -1.2264    -0.7399     0.0103 C.1     
  18 N18           -2.2009    -1.3236     0.0169 N.1     
  19 C19            5.5204     2.0841     3.1326 C.ar    
  20 C20            4.4993     2.4511     2.2394 C.ar    
  21 C21            5.6415     1.2974     0.4752 C.ar    
  22 C22            6.6479     0.9231     1.3112 C.ar    
  23 C23            6.6110     1.3115     2.6614 C.ar    
  24 C24            7.6322     0.9444     3.5544 C.ar    
  25 C25            7.5606     1.3345     4.8563 C.ar    
  26 C26            6.4877     2.0939     5.3199 C.ar    
  27 C27            5.4806     2.4673     4.4841 C.ar    
  28 H28           -0.9585     1.9219     0.0170 H       
  29 H29            1.2448    -1.7595    -0.0190 H       
  30 H30            3.3503    -0.4869    -0.0326 H       
  31 H31            1.3526     3.9865    -0.9919 H       
  32 H32            0.8362     4.0898     0.7165 H       
  33 H33            4.3675     1.6533    -1.8057 H       
  34 H34            3.2653     3.0226    -2.0856 H       
  35 H35            4.8978     4.5547    -1.0198 H       
  36 H36            6.0001     3.1854    -0.7399 H       
  37 H37            6.1196     2.7820    -3.1836 H       
  38 H38            5.0173     4.1513    -3.4635 H       
  39 H39            6.9651     4.9903    -4.8516 H       
  40 H40            8.4846     5.3716    -4.0065 H       
  41 H41            8.0147     3.6752    -4.2708 H       
  42 H42            6.0359     6.0126    -1.4237 H       
  43 H43            7.3631     6.6963    -2.3929 H       
  44 H44            5.7778     6.3927    -3.1433 H       
  45 H45            3.6620     3.0396     2.5843 H       
  46 H46            5.6723     0.9976    -0.5619 H       
  47 H47            7.4705     0.3303     0.9392 H       
  48 H48            8.4692     0.3556     3.2095 H       
  49 H49            8.3466     1.0511     5.5405 H       
  50 H50            6.4549     2.3901     6.3579 H       
  51 H51            4.6555     3.0558     4.8574 H       
@<TRIPOS>BOND
   1    1    2 ar
   2    1    5 ar
   3    1   28 1
   4    2    3 ar
   5    2   17 1
   6    3    4 ar
   7    3   29 1
   8    4    7 ar
   9    4   30 1
  10    5    7 ar
  11    5    6 1
  12    6    9 1
  13    6   31 1
  14    6   32 1
  15    7    8 1
  16    8    9 1
  17    8   10 1
  18    8   11 1
  19   10   21 ar
  20   10   20 ar
  21   11   12 1
  22   11   33 1
  23   11   34 1
  24   12   13 1
  25   12   35 1
  26   12   36 1
  27   13   14 1
  28   13   37 1
  29   13   38 1
  30   14   15 1
  31   14   16 1
  32   15   39 1
  33   15   40 1
  34   15   41 1
  35   16   42 1
  36   16   43 1
  37   16   44 1
  38   17   18 3
  39   19   20 ar
  40   19   23 ar
  41   19   27 ar
  42   20   45 1
  43   21   22 ar
  44   21   46 1
  45   22   23 ar
  46   22   47 1
  47   23   24 ar
  48   24   25 ar
  49   24   48 1
  50   25   26 ar
  51   25   49 1
  52   26   27 ar
  53   26   50 1
  54   27   51 1

#	End of record

