#	Name: ASD08710133
#	Creating user name:	WinNT
#	Creation time:	15. 06. 2019 21:19

#	Modifying user name:	WinNT
#	Modification time:	15. 06. 2019 21:19

#	Program:	/corina/corina34_cracker 3.40 0067  02.08.2006

@<TRIPOS>MOLECULE
ASD08710133
  33   34    0    0    0
SMALL
NO_CHARGES


@<TRIPOS>ATOM
   1 N1            -0.0831     1.5065    -0.4436 N.am    
   2 C2            -0.0189     0.0372    -0.4294 C.3     
   3 C3             0.4047    -0.4451    -1.8208 C.3     
   4 N4             1.6514     0.2274    -2.2101 N.3     
   5 C5             1.4609     1.6797    -2.3222 C.3     
   6 C6             1.0805     2.2490    -0.9513 C.3     
   7 C7            -1.1814     2.1552    -0.0082 C.2     
   8 O8            -2.1757     1.5276     0.2999 O.2     
   9 C9             0.0174     4.3233     0.2978 C.ar    
  10 C10           -1.1766     3.6300     0.0947 C.ar    
  11 C11           -2.3697     4.3546    -0.0104 C.ar    
  12 C12           -2.3108     5.7335     0.0924 C.ar    
  13 C13           -1.0871     6.3457     0.2938 C.ar    
  14 N14            0.0218     5.6368     0.3890 N.ar    
  15 C15           -1.0189     7.8470     0.4062 C.3     
  16 C16           -1.3957    -0.5341    -0.0846 C.3     
  17 H17            0.7121    -0.2902     0.3099 H       
  18 H18            0.5644    -1.5231    -1.7991 H       
  19 H19           -0.3773    -0.2072    -2.5419 H       
  20 H20            2.3964     0.0092    -1.5656 H       
  21 H21            2.3866     2.1426    -2.6642 H       
  22 H22            0.6642     1.8879    -3.0364 H       
  23 H23            0.8266     3.3043    -1.0508 H       
  24 H24            1.9172     2.1342    -0.2622 H       
  25 H25            0.9452     3.7775     0.3853 H       
  26 H26           -3.3118     3.8507    -0.1680 H       
  27 H27           -3.2110     6.3253     0.0159 H       
  28 H28           -1.1347     8.1387     1.4500 H       
  29 H29           -0.0547     8.1956     0.0363 H       
  30 H30           -1.8181     8.2923    -0.1863 H       
  31 H31           -2.1390    -0.1314    -0.7727 H       
  32 H32           -1.3706    -1.6203    -0.1718 H       
  33 H33           -1.6585    -0.2576     0.9365 H       
@<TRIPOS>BOND
   1    1    2 1
   2    1    6 1
   3    1    7 am
   4    2    3 1
   5    2   16 1
   6    2   17 1
   7    3    4 1
   8    3   18 1
   9    3   19 1
  10    4    5 1
  11    4   20 1
  12    5    6 1
  13    5   21 1
  14    5   22 1
  15    6   23 1
  16    6   24 1
  17    7    8 2
  18    7   10 1
  19    9   10 ar
  20    9   14 ar
  21    9   25 1
  22   10   11 ar
  23   11   12 ar
  24   11   26 1
  25   12   13 ar
  26   12   27 1
  27   13   14 ar
  28   13   15 1
  29   15   28 1
  30   15   29 1
  31   15   30 1
  32   16   31 1
  33   16   32 1
  34   16   33 1

#	End of record

