#	Name: ASD03200016
#	Creating user name:	WinNT
#	Creation time:	15. 06. 2019 20:34

#	Modifying user name:	WinNT
#	Modification time:	15. 06. 2019 20:34

#	Program:	/corina/corina34_cracker 3.40 0067  02.08.2006

@<TRIPOS>MOLECULE
ASD03200016
  54   57    0    0    0
SMALL
NO_CHARGES


@<TRIPOS>ATOM
   1 C1             0.6733    -2.4506    -0.0321 C.3     
   2 N2             0.1901    -1.1236     0.3707 N.3     
   3 C3             0.6838    -0.7614     1.7054 C.3     
   4 C4             2.2127    -0.6985     1.6855 C.3     
   5 C5             2.7694    -2.0624     1.2677 C.3     
   6 C6             2.2019    -2.4381    -0.1039 C.3     
   7 C7            -1.2017    -1.0619     0.3191 C.ar    
   8 C8            -1.9540    -0.9083     1.4810 C.ar    
   9 C9            -3.3299    -0.8510     1.3882 C.ar    
  10 N10           -3.9360    -0.9399     0.2195 N.ar    
  11 C11           -3.2637    -1.0861    -0.9069 C.ar    
  12 C12           -1.8800    -1.1468    -0.9026 C.ar    
  13 N13           -1.1707    -1.3020    -2.1012 N.am    
  14 C14           -1.6939    -2.0353    -3.1038 C.2     
  15 C15           -1.0135    -2.0951    -4.3997 C.2     
  16 O16           -2.7320    -2.6479    -2.9324 O.2     
  17 C17           -1.5476    -2.7402    -5.4932 C.2     
  18 S18           -0.4152    -2.5717    -6.8323 S.3     
  19 C19            0.6764    -1.6492    -5.8053 C.2     
  20 N20            0.1718    -1.5246    -4.6200 N.2     
  21 C21            1.9761    -1.0933    -6.2351 C.ar    
  22 C22            2.8117    -0.4677    -5.3095 C.ar    
  23 C23            4.0245     0.0491    -5.7168 C.ar    
  24 C24            4.4160    -0.0505    -7.0404 C.ar    
  25 C25            3.5963    -0.6677    -7.9668 C.ar    
  26 C26            2.3783    -1.1967    -7.5727 C.ar    
  27 N27            2.7071    -0.3567     3.0259 N.3     
  28 N28           -2.7579    -3.4031    -5.5327 N.pl3   
  29 O29            1.5723    -1.8033    -8.4821 O.3     
  30 C30            2.0431    -1.8609    -9.8300 C.3     
  31 F31            3.2524    -2.5632    -9.8720 F       
  32 F32            1.0968    -2.5138   -10.6271 F       
  33 F33            2.2413    -0.5621   -10.3107 F       
  34 H34            0.3500    -3.1920     0.6986 H       
  35 H35            0.2657    -2.7038    -1.0108 H       
  36 H36            0.2839     0.2123     1.9886 H       
  37 H37            0.3605    -1.5107     2.4280 H       
  38 H38            2.5365     0.0604     0.9731 H       
  39 H39            3.8566    -2.0100     1.2102 H       
  40 H40            2.4783    -2.8146     2.0009 H       
  41 H41            2.5609    -3.4274    -0.3877 H       
  42 H42            2.5255    -1.7066    -0.8444 H       
  43 H43           -1.4671    -0.8353     2.4423 H       
  44 H44           -3.9191    -0.7320     2.2854 H       
  45 H45           -3.7982    -1.1549    -1.8428 H       
  46 H46           -0.3031    -0.8818    -2.2093 H       
  47 H47            2.5096    -0.3878    -4.2758 H       
  48 H48            4.6707     0.5335    -4.9997 H       
  49 H49            5.3668     0.3566    -7.3513 H       
  50 H50            3.9080    -0.7415    -8.9982 H       
  51 H51            3.7149    -0.3091     3.0384 H       
  52 H52            2.3002     0.5072     3.3519 H       
  53 H53           -3.3154    -3.4427    -4.7399 H       
  54 H54           -3.0508    -3.8294    -6.3534 H       
@<TRIPOS>BOND
   1    1    2 1
   2    1    6 1
   3    1   34 1
   4    1   35 1
   5    2    3 1
   6    2    7 1
   7    3    4 1
   8    3   36 1
   9    3   37 1
  10    4    5 1
  11    4   27 1
  12    4   38 1
  13    5    6 1
  14    5   39 1
  15    5   40 1
  16    6   41 1
  17    6   42 1
  18    7    8 ar
  19    7   12 ar
  20    8    9 ar
  21    8   43 1
  22    9   10 ar
  23    9   44 1
  24   10   11 ar
  25   11   12 ar
  26   11   45 1
  27   12   13 1
  28   13   14 am
  29   13   46 1
  30   14   15 1
  31   14   16 2
  32   15   17 2
  33   15   20 1
  34   17   18 1
  35   17   28 1
  36   18   19 1
  37   19   20 2
  38   19   21 1
  39   21   22 ar
  40   21   26 ar
  41   22   23 ar
  42   22   47 1
  43   23   24 ar
  44   23   48 1
  45   24   25 ar
  46   24   49 1
  47   25   26 ar
  48   25   50 1
  49   26   29 1
  50   27   51 1
  51   27   52 1
  52   28   53 1
  53   28   54 1
  54   29   30 1
  55   30   31 1
  56   30   32 1
  57   30   33 1

#	End of record

