#	Name: ASD00069479
#	Creating user name:	WinNT
#	Creation time:	15. 06. 2019 18:29

#	Modifying user name:	WinNT
#	Modification time:	15. 06. 2019 18:29

#	Program:	/corina/corina34_cracker 3.40 0067  02.08.2006

@<TRIPOS>MOLECULE
ASD00069479
  32   33    0    0    0
SMALL
NO_CHARGES


@<TRIPOS>ATOM
   1 O1            -0.0174     1.4305     0.0099 O.3     
   2 B2             0.0021    -0.0041     0.0020 Du      
   3 O3             1.0670    -0.3534    -0.8937 O.3     
   4 C4            -0.9361    -0.9782     0.7993 C.ar    
   5 C5            -0.7795    -2.3574     0.6753 C.ar    
   6 C6            -1.9250    -0.4665     1.6382 C.ar    
   7 C7            -2.7467    -1.3265     2.3371 C.ar    
   8 C8            -2.5912    -2.6953     2.2070 C.ar    
   9 C9            -1.6074    -3.2096     1.3795 C.ar    
  10 Cl10          -1.4190    -4.9281     1.2213 Cl      
  11 C11            2.1089     0.6053    -0.6139 C.3     
  12 C12            1.3736     1.8147    -0.0013 C.3     
  13 C13            1.5763     3.0578    -0.8700 C.3     
  14 C14            1.8670     2.0726     1.4238 C.3     
  15 C15            3.1105     0.0270     0.3877 C.3     
  16 C16            2.8198     1.0122    -1.9062 C.3     
  17 H17           -0.0125    -2.7590     0.0297 H       
  18 H18           -2.0475     0.6015     1.7410 H       
  19 H19           -3.5128    -0.9306     2.9874 H       
  20 H20           -3.2367    -3.3648     2.7561 H       
  21 H21            1.1819     2.8713    -1.8689 H       
  22 H22            1.0512     3.9024    -0.4239 H       
  23 H23            2.6403     3.2853    -0.9361 H       
  24 H24            2.9371     2.2793     1.4061 H       
  25 H25            1.3383     2.9292     1.8419 H       
  26 H26            1.6771     1.1929     2.0388 H       
  27 H27            3.5790    -0.8603    -0.0381 H       
  28 H28            3.8754     0.7717     0.6077 H       
  29 H29            2.5906    -0.2424     1.3071 H       
  30 H30            2.0954     1.4363    -2.6014 H       
  31 H31            3.5854     1.7548    -1.6813 H       
  32 H32            3.2852     0.1354    -2.3564 H       
@<TRIPOS>BOND
   1    1    2 1
   2    1   12 1
   3    2    3 1
   4    2    4 1
   5    3   11 1
   6    4    5 ar
   7    4    6 ar
   8    5    9 ar
   9    5   17 1
  10    6    7 ar
  11    6   18 1
  12    7    8 ar
  13    7   19 1
  14    8    9 ar
  15    8   20 1
  16    9   10 1
  17   11   12 1
  18   11   15 1
  19   11   16 1
  20   12   13 1
  21   12   14 1
  22   13   21 1
  23   13   22 1
  24   13   23 1
  25   14   24 1
  26   14   25 1
  27   14   26 1
  28   15   27 1
  29   15   28 1
  30   15   29 1
  31   16   30 1
  32   16   31 1
  33   16   32 1

#	End of record

