#	Name: ASD01916537
#	Creating user name:	WinNT
#	Creation time:	15. 06. 2019 20:07

#	Modifying user name:	WinNT
#	Modification time:	15. 06. 2019 20:07

#	Program:	/corina/corina34_cracker 3.40 0067  02.08.2006

@<TRIPOS>MOLECULE
ASD01916537
  44   47    0    0    0
SMALL
NO_CHARGES


@<TRIPOS>ATOM
   1 C1            -0.0171     1.4104     0.0098 C.ar    
   2 C2             0.0021    -0.0041     0.0020 C.ar    
   3 C3            -1.1914    -0.7259     0.0414 C.ar    
   4 C4            -2.3839    -0.0651     0.0741 C.ar    
   5 C5            -2.4218     1.3383     0.0663 C.ar    
   6 C6            -1.2401     2.0767     0.0357 C.ar    
   7 N7             1.1600     2.0757     0.0021 N.2     
   8 C8             2.3197     1.4680    -0.0397 C.2     
   9 N9             2.4197     0.1198    -0.1575 N.am    
  10 C10            1.3099    -0.6625    -0.0625 C.2     
  11 C11           -3.6832     2.0158     0.0896 C.1     
  12 O12            1.4011    -1.8762    -0.0319 O.2     
  13 C13           -4.7174     2.5712     0.1086 C.1     
  14 C14           -5.9788     3.2487     0.1318 C.2     
  15 C15            3.5359     2.3451     0.1019 C.3     
  16 C16            4.7921     1.6923    -0.4310 C.3     
  17 C17            4.8962     0.2358    -0.0272 C.3     
  18 C18            3.6790    -0.5619    -0.4370 C.3     
  19 S19           -6.2011     4.9963     0.1259 S.3     
  20 C20           -7.9485     4.7694     0.1645 C.2     
  21 C21           -8.2002     3.4536     0.1779 C.2     
  22 N22           -7.1497     2.6702     0.1551 N.2     
  23 C23            6.1343    -0.3745    -0.6871 C.3     
  24 C24            5.0552     0.1525     1.4922 C.3     
  25 C25           -8.9815     5.8665     0.1803 C.3     
  26 H26           -1.1709    -1.8057     0.0456 H       
  27 H27           -3.3064    -0.6257     0.1060 H       
  28 H28           -1.2723     3.1562     0.0323 H       
  29 H29            3.3647     3.2744    -0.4412 H       
  30 H30            3.6807     2.5781     1.1569 H       
  31 H31            4.7909     1.7585    -1.5189 H       
  32 H32            5.6597     2.2287    -0.0467 H       
  33 H33            3.6880    -1.5123     0.0967 H       
  34 H34            3.7373    -0.7640    -1.5065 H       
  35 H35           -9.2067     3.0625     0.2018 H       
  36 H36            7.0236     0.1633    -0.3584 H       
  37 H37            6.2180    -1.4233    -0.4025 H       
  38 H38            6.0434    -0.2982    -1.7706 H       
  39 H39            4.1895     0.6072     1.9736 H       
  40 H40            5.1310    -0.8925     1.7928 H       
  41 H41            5.9585     0.6834     1.7926 H       
  42 H42           -8.4827     6.8355     0.1637 H       
  43 H43           -9.6238     5.7734    -0.6954 H       
  44 H44           -9.5853     5.7841     1.0841 H       
@<TRIPOS>BOND
   1    1    2 ar
   2    1    7 1
   3    1    6 ar
   4    2    3 ar
   5    2   10 1
   6    3    4 ar
   7    3   26 1
   8    4    5 ar
   9    4   27 1
  10    5    6 ar
  11    5   11 1
  12    6   28 1
  13    7    8 2
  14    8    9 1
  15    8   15 1
  16    9   10 am
  17    9   18 1
  18   10   12 2
  19   11   13 3
  20   13   14 1
  21   14   19 1
  22   14   22 2
  23   15   16 1
  24   15   29 1
  25   15   30 1
  26   16   17 1
  27   16   31 1
  28   16   32 1
  29   17   18 1
  30   17   23 1
  31   17   24 1
  32   18   33 1
  33   18   34 1
  34   19   20 1
  35   20   21 2
  36   20   25 1
  37   21   22 1
  38   21   35 1
  39   23   36 1
  40   23   37 1
  41   23   38 1
  42   24   39 1
  43   24   40 1
  44   24   41 1
  45   25   42 1
  46   25   43 1
  47   25   44 1

#	End of record

