#	Name: ASD04750009
#	Creating user name:	WinNT
#	Creation time:	15. 06. 2019 20:52

#	Modifying user name:	WinNT
#	Modification time:	15. 06. 2019 20:52

#	Program:	/corina/corina34_cracker 3.40 0067  02.08.2006

@<TRIPOS>MOLECULE
ASD04750009
  42   45    0    0    0
SMALL
NO_CHARGES


@<TRIPOS>ATOM
   1 C1            -0.6751     0.5815     1.8002 C.ar    
   2 C2            -0.7424    -0.7345     1.3747 C.ar    
   3 C3            -1.8749    -1.2013     0.7435 C.ar    
   4 C4            -2.9614    -0.3448     0.5308 C.ar    
   5 C5            -2.8851     0.9788     0.9625 C.ar    
   6 C6            -1.7479     1.4335     1.5981 C.ar    
   7 C7            -4.2712    -0.5889    -0.1096 C.2     
   8 C8            -5.0476     0.6506    -0.0722 C.2     
   9 C9            -4.1768     1.6769     0.6137 C.3     
  10 C10           -6.2948     0.8397    -0.5550 C.2     
  11 C11           -6.8716     2.1924    -0.5930 C.ar    
  12 C12           -6.0482     3.3021    -0.8114 C.ar    
  13 C13           -8.2473     2.3754    -0.4165 C.ar    
  14 C14           -8.7801     3.6465    -0.4533 C.ar    
  15 C15           -7.9579     4.7398    -0.6647 C.ar    
  16 C16           -6.5965     4.5666    -0.8455 C.ar    
  17 O17           -4.6420    -1.6450    -0.5882 O.2     
  18 N18           -4.8343     2.1594     1.8355 N.3     
  19 C19           -4.1213     3.3166     2.3957 C.3     
  20 Br20           0.8822     1.2145     2.6661 Br      
  21 C21           -4.9476     1.0849     2.8324 C.3     
  22 C22           -5.6899     1.6136     4.0626 C.3     
  23 O23           -4.9996     2.7567     4.5748 O.3     
  24 C24           -4.8717     3.8230     3.6303 C.3     
  25 H25            0.0951    -1.3967     1.5376 H       
  26 H26           -1.9240    -2.2282     0.4125 H       
  27 H27           -1.6912     2.4591     1.9319 H       
  28 H28           -3.9808     2.5109    -0.0601 H       
  29 H29           -6.8686    -0.0023    -0.9133 H       
  30 H30           -4.9858     3.1686    -0.9527 H       
  31 H31           -8.8902     1.5234    -0.2521 H       
  32 H32           -9.8419     3.7895    -0.3172 H       
  33 H33           -8.3815     5.7328    -0.6932 H       
  34 H34           -5.9616     5.4247    -1.0096 H       
  35 H35           -3.1118     3.0194     2.6798 H       
  36 H36           -4.0714     4.1095     1.6494 H       
  37 H37           -5.5010     0.2487     2.4050 H       
  38 H38           -3.9514     0.7520     3.1236 H       
  39 H39           -6.7044     1.8966     3.7819 H       
  40 H40           -5.7261     0.8376     4.8272 H       
  41 H41           -4.3164     4.6448     4.0821 H       
  42 H42           -5.8625     4.1702     3.3370 H       
@<TRIPOS>BOND
   1    1    2 ar
   2    1   20 1
   3    1    6 ar
   4    2    3 ar
   5    2   25 1
   6    3    4 ar
   7    3   26 1
   8    4    5 ar
   9    4    7 1
  10    5    6 ar
  11    5    9 1
  12    6   27 1
  13    7    8 1
  14    7   17 2
  15    8    9 1
  16    8   10 2
  17    9   18 1
  18    9   28 1
  19   10   11 1
  20   10   29 1
  21   11   12 ar
  22   11   13 ar
  23   12   16 ar
  24   12   30 1
  25   13   14 ar
  26   13   31 1
  27   14   15 ar
  28   14   32 1
  29   15   16 ar
  30   15   33 1
  31   16   34 1
  32   18   19 1
  33   18   21 1
  34   19   24 1
  35   19   35 1
  36   19   36 1
  37   21   22 1
  38   21   37 1
  39   21   38 1
  40   22   23 1
  41   22   39 1
  42   22   40 1
  43   23   24 1
  44   24   41 1
  45   24   42 1

#	End of record

