#	Name: ASD01918089
#	Creating user name:	WinNT
#	Creation time:	15. 06. 2019 20:10

#	Modifying user name:	WinNT
#	Modification time:	15. 06. 2019 20:10

#	Program:	/corina/corina34_cracker 3.40 0067  02.08.2006

@<TRIPOS>MOLECULE
ASD01918089
  41   44    0    0    0
SMALL
NO_CHARGES


@<TRIPOS>ATOM
   1 C1             0.6692     0.6282     0.8236 C.2     
   2 C2             0.6577    -0.6903     1.2969 C.2     
   3 C3             1.8958    -0.9731     1.7655 C.2     
   4 N4             2.6861     0.1211     1.6038 N.pl3   
   5 C5             1.9407     1.1195     1.0222 C.2     
   6 C6             2.4146     2.4654     0.6748 C.2     
   7 N7             3.6343     2.9486     0.8611 N.2     
   8 C8             3.5974     4.2054     0.3946 C.2     
   9 N9             2.3932     4.4294    -0.0433 N.2     
  10 O10            1.6977     3.4463     0.1004 O.3     
  11 C11            4.7446     5.1826     0.3808 C.3     
  12 C12            5.0433     5.5992    -1.0611 C.3     
  13 C13            6.2293     6.5663    -1.0792 C.3     
  14 C14            5.8716     7.8217    -0.2774 C.3     
  15 N15            5.4434     7.4171     1.0685 N.am    
  16 C16            4.3701     6.4223     1.1992 C.3     
  17 C17            6.0240     7.9484     2.1626 C.2     
  18 O18            5.6148     7.6577     3.2698 O.2     
  19 C19            7.1578     8.8841     2.0164 C.ar    
  20 C20            8.3345     8.6908     2.7412 C.ar    
  21 C21            7.0710     9.9766     1.1434 C.ar    
  22 C22            8.1588    10.8229     1.0421 C.ar    
  23 C23            9.2912    10.5662     1.8009 C.ar    
  24 N24            9.3456     9.5242     2.6122 N.ar    
  25 F25           10.3570    11.3910     1.7052 F       
  26 Cl26          -0.7023    -1.7692     1.2850 Cl      
  27 H27           -0.1616     1.1583     0.3817 H       
  28 H28            2.2050    -1.9137     2.1971 H       
  29 H29            3.6201     0.1869     1.8570 H       
  30 H30            5.6276     4.7131     0.8143 H       
  31 H31            5.2862     4.7157    -1.6515 H       
  32 H32            4.1679     6.0903    -1.4860 H       
  33 H33            7.0986     6.0843    -0.6318 H       
  34 H34            6.4564     6.8443    -2.1084 H       
  35 H35            6.7452     8.4694    -0.2036 H       
  36 H36            5.0606     8.3539    -0.7744 H       
  37 H37            3.4365     6.8404     0.8226 H       
  38 H38            4.2529     6.1466     2.2472 H       
  39 H39            8.4164     7.8502     3.4144 H       
  40 H40            6.1768    10.1526     0.5639 H       
  41 H41            8.1277    11.6748     0.3790 H       
@<TRIPOS>BOND
   1    1    2 1
   2    1    5 2
   3    1   27 1
   4    2    3 2
   5    2   26 1
   6    3    4 1
   7    3   28 1
   8    4    5 1
   9    4   29 1
  10    5    6 1
  11    6    7 2
  12    6   10 1
  13    7    8 1
  14    8    9 2
  15    8   11 1
  16    9   10 1
  17   11   12 1
  18   11   16 1
  19   11   30 1
  20   12   13 1
  21   12   31 1
  22   12   32 1
  23   13   14 1
  24   13   33 1
  25   13   34 1
  26   14   15 1
  27   14   35 1
  28   14   36 1
  29   15   16 1
  30   15   17 am
  31   16   37 1
  32   16   38 1
  33   17   18 2
  34   17   19 1
  35   19   21 ar
  36   19   20 ar
  37   20   24 ar
  38   20   39 1
  39   21   22 ar
  40   21   40 1
  41   22   23 ar
  42   22   41 1
  43   23   24 ar
  44   23   25 1

#	End of record

