#	Name: ASD04880198
#	Creating user name:	WinNT
#	Creation time:	15. 06. 2019 20:53

#	Modifying user name:	WinNT
#	Modification time:	15. 06. 2019 20:53

#	Program:	/corina/corina34_cracker 3.40 0067  02.08.2006

@<TRIPOS>MOLECULE
ASD04880198
  35   38    0    0    0
SMALL
NO_CHARGES


@<TRIPOS>ATOM
   1 C1            -0.0104     1.5405     0.0964 C.3     
   2 C2             0.0063     0.0005     0.0307 C.3     
   3 N3             1.4405    -0.3292     0.0250 N.am    
   4 N4             2.1748     0.8537     0.0800 N.2     
   5 C5             1.4531     1.9199     0.1213 C.2     
   6 C6             1.9739     3.2983     0.1826 C.ar    
   7 C7             1.9589    -1.5723    -0.0244 C.2     
   8 O8             1.2249    -2.5401     0.0352 O.2     
   9 C9             3.4172    -1.7590    -0.1508 C.ar    
  10 C10            3.9700    -3.0384    -0.0577 C.ar    
  11 C11            5.3321    -3.2108    -0.1759 C.ar    
  12 C12            6.1592    -2.1162    -0.3875 C.ar    
  13 C13            5.6130    -0.8350    -0.4816 C.ar    
  14 C14            4.2483    -0.6566    -0.3697 C.ar    
  15 C15            1.0999     4.3867     0.2235 C.ar    
  16 N16            1.5655     5.6173     0.2787 N.ar    
  17 C17            2.8596     5.8726     0.2975 C.ar    
  18 C18            3.7906     4.8497     0.2597 C.ar    
  19 C19            3.3542     3.5381     0.2066 C.ar    
  20 O20            7.5116    -2.0239    -0.5355 O.3     
  21 C21            7.7475    -0.7335    -1.1285 C.3     
  22 O22            6.6266     0.0561    -0.6889 O.3     
  23 H23           -0.4980     1.9556    -0.7856 H       
  24 H24           -0.5086     1.8790     1.0049 H       
  25 H25           -0.4819    -0.4262     0.9068 H       
  26 H26           -0.4713    -0.3496    -0.8844 H       
  27 H27            3.3299    -3.8925     0.1073 H       
  28 H28            5.7576    -4.2008    -0.1032 H       
  29 H29            3.8246     0.3341    -0.4427 H       
  30 H30            0.0332     4.2179     0.2095 H       
  31 H31            3.1981     6.8971     0.3427 H       
  32 H32            4.8472     5.0728     0.2752 H       
  33 H33            4.0591     2.7205     0.1766 H       
  34 H34            8.6821    -0.3088    -0.7621 H       
  35 H35            7.7602    -0.8083    -2.2158 H       
@<TRIPOS>BOND
   1    1    2 1
   2    1    5 1
   3    1   23 1
   4    1   24 1
   5    2    3 1
   6    2   25 1
   7    2   26 1
   8    3    4 1
   9    3    7 am
  10    4    5 2
  11    5    6 1
  12    6   15 ar
  13    6   19 ar
  14    7    8 2
  15    7    9 1
  16    9   10 ar
  17    9   14 ar
  18   10   11 ar
  19   10   27 1
  20   11   12 ar
  21   11   28 1
  22   12   13 ar
  23   12   20 1
  24   13   14 ar
  25   13   22 1
  26   14   29 1
  27   15   16 ar
  28   15   30 1
  29   16   17 ar
  30   17   18 ar
  31   17   31 1
  32   18   19 ar
  33   18   32 1
  34   19   33 1
  35   20   21 1
  36   21   22 1
  37   21   34 1
  38   21   35 1

#	End of record

