#	Name: ASD03240567
#	Creating user name:	WinNT
#	Creation time:	15. 06. 2019 20:35

#	Modifying user name:	WinNT
#	Modification time:	15. 06. 2019 20:35

#	Program:	/corina/corina34_cracker 3.40 0067  02.08.2006

@<TRIPOS>MOLECULE
ASD03240567
  64   70    0    0    0
SMALL
NO_CHARGES


@<TRIPOS>ATOM
   1 C1            -0.0166     1.3755     0.0096 C.ar    
   2 C2             0.0021    -0.0041     0.0020 C.ar    
   3 N3             1.1422    -0.6683    -0.0054 N.ar    
   4 C4             2.3145    -0.0482    -0.0053 C.ar    
   5 C5             2.3702     1.3442    -0.0124 C.ar    
   6 C6             1.1860     2.0698     0.0019 C.ar    
   7 N7             3.4819    -0.8059     0.0229 N.pl3   
   8 C8             4.3585    -0.7193     1.1008 C.ar    
   9 C9             4.9947     0.4889     1.4047 C.ar    
  10 C10            4.7640     1.6836     0.5627 C.2     
  11 N11            3.5937     2.0277    -0.0513 N.pl3   
  12 C12            4.6040    -1.8389     1.8846 C.ar    
  13 C13            5.4630    -1.7533     2.9635 C.ar    
  14 C14            6.0845    -0.5554     3.2718 C.ar    
  15 C15            5.8552     0.5654     2.4996 C.ar    
  16 N16            5.6767     2.5925     0.2873 N.2     
  17 C17            5.1476     3.5410    -0.5058 C.2     
  18 C18            3.8203     3.2028    -0.7376 C.2     
  19 C19            2.8472     3.9510    -1.5547 C.ar    
  20 C20            2.7468     5.3396    -1.4309 C.ar    
  21 C21            2.0248     3.2758    -2.4609 C.ar    
  22 C22            1.1171     3.9823    -3.2217 C.ar    
  23 C23            1.0194     5.3565    -3.0895 C.ar    
  24 C24            1.8343     6.0326    -2.1984 C.ar    
  25 C25            5.8469     4.7218    -1.0316 C.2     
  26 C26            0.0252     6.1212    -3.9249 C.3     
  27 N27           -1.0528     5.2717    -4.4487 N.3     
  28 C28           -0.4772     7.4119    -3.2567 C.3     
  29 C29           -0.3913     8.0701    -4.6439 C.3     
  30 C30            0.6768     7.0172    -4.9913 C.3     
  31 C31            7.1408     4.9287    -0.7264 C.2     
  32 C32            7.8417     6.1121    -1.2534 C.ar    
  33 C33            9.1860     6.3305    -0.9384 C.ar    
  34 C34            9.8356     7.4406    -1.4360 C.ar    
  35 C35            9.1598     8.3374    -2.2449 C.ar    
  36 C36            7.8287     8.1282    -2.5607 C.ar    
  37 C37            7.1674     7.0195    -2.0758 C.ar    
  38 H38           -0.9556     1.9091     0.0170 H       
  39 H39           -0.9306    -0.5486     0.0025 H       
  40 H40            1.2002     3.1497     0.0061 H       
  41 H41            3.6863    -1.4005    -0.7157 H       
  42 H42            4.1229    -2.7772     1.6509 H       
  43 H43            5.6512    -2.6269     3.5700 H       
  44 H44            6.7505    -0.4974     4.1200 H       
  45 H45            6.3408     1.4990     2.7425 H       
  46 H46            3.3819     5.8684    -0.7357 H       
  47 H47            2.1003     2.2035    -2.5654 H       
  48 H48            0.4812     3.4620    -3.9226 H       
  49 H49            1.7524     7.1050    -2.1005 H       
  50 H50            5.3222     5.4234    -1.6631 H       
  51 H51           -0.6790     4.4500    -4.8994 H       
  52 H52           -1.7019     5.0199    -3.7184 H       
  53 H53           -1.4940     7.3369    -2.8712 H       
  54 H54            0.2218     7.8288    -2.5316 H       
  55 H55           -1.3049     7.9733    -5.2304 H       
  56 H56           -0.0084     9.0904    -4.6201 H       
  57 H57            1.6918     7.3257    -4.7407 H       
  58 H58            0.5904     6.6256    -6.0049 H       
  59 H59            7.6656     4.2271    -0.0949 H       
  60 H60            9.7145     5.6319    -0.3067 H       
  61 H61           10.8742     7.6107    -1.1936 H       
  62 H62            9.6737     9.2051    -2.6313 H       
  63 H63            7.3077     8.8328    -3.1920 H       
  64 H64            6.1287     6.8573    -2.3234 H       
@<TRIPOS>BOND
   1    1    2 ar
   2    1    6 ar
   3    1   38 1
   4    2    3 ar
   5    2   39 1
   6    3    4 ar
   7    4    5 ar
   8    4    7 1
   9    5    6 ar
  10    5   11 1
  11    6   40 1
  12    7    8 1
  13    7   41 1
  14    8    9 ar
  15    8   12 ar
  16    9   10 1
  17    9   15 ar
  18   10   11 1
  19   10   16 2
  20   11   18 1
  21   12   13 ar
  22   12   42 1
  23   13   14 ar
  24   13   43 1
  25   14   15 ar
  26   14   44 1
  27   15   45 1
  28   16   17 1
  29   17   18 2
  30   17   25 1
  31   18   19 1
  32   19   20 ar
  33   19   21 ar
  34   20   24 ar
  35   20   46 1
  36   21   22 ar
  37   21   47 1
  38   22   23 ar
  39   22   48 1
  40   23   24 ar
  41   23   26 1
  42   24   49 1
  43   25   31 2
  44   25   50 1
  45   26   27 1
  46   26   28 1
  47   26   30 1
  48   27   51 1
  49   27   52 1
  50   28   29 1
  51   28   53 1
  52   28   54 1
  53   29   30 1
  54   29   55 1
  55   29   56 1
  56   30   57 1
  57   30   58 1
  58   31   32 1
  59   31   59 1
  60   32   33 ar
  61   32   37 ar
  62   33   34 ar
  63   33   60 1
  64   34   35 ar
  65   34   61 1
  66   35   36 ar
  67   35   62 1
  68   36   37 ar
  69   36   63 1
  70   37   64 1

#	End of record

