#	Name: ASD01850093
#	Creating user name:	WinNT
#	Creation time:	15. 06. 2019 19:38

#	Modifying user name:	WinNT
#	Modification time:	15. 06. 2019 19:38

#	Program:	/corina/corina34_cracker 3.40 0067  02.08.2006

@<TRIPOS>MOLECULE
ASD01850093
  55   59    0    0    0
SMALL
NO_CHARGES


@<TRIPOS>ATOM
   1 C1             0.0156     0.9740    -0.4802 C.ar    
   2 C2             0.1345    -0.4038    -0.5172 C.ar    
   3 C3             1.3791    -0.9962    -0.4521 C.ar    
   4 C4             2.5217    -0.2037    -0.3487 C.ar    
   5 C5             2.3900     1.1895    -0.2936 C.ar    
   6 C6             1.1444     1.7682    -0.3686 C.ar    
   7 C7             3.9614    -0.5346    -0.2849 C.2     
   8 N8             4.6853     0.5820    -0.3517 N.am    
   9 C9             3.7790     1.7324    -0.1276 C.3     
  10 C10            5.9776     1.2377    -0.6264 C.3     
  11 C11            5.5664     2.4619    -1.4811 C.3     
  12 N12            4.1436     2.7094    -1.1594 N.am    
  13 C13            3.3422     3.6451    -1.7059 C.2     
  14 C14            3.8861     4.5964    -2.6948 C.ar    
  15 C15            3.0432     5.5257    -3.3100 C.ar    
  16 C16            3.5545     6.4118    -4.2317 C.ar    
  17 C17            4.9071     6.3824    -4.5507 C.ar    
  18 C18            5.7487     5.4592    -3.9413 C.ar    
  19 C19            5.2463     4.5739    -3.0139 C.ar    
  20 O20            2.1712     3.7057    -1.3843 O.2     
  21 C21            3.9677     2.3008     1.2553 C.ar    
  22 C22            3.7461     3.6457     1.4857 C.ar    
  23 C23            3.9189     4.1676     2.7538 C.ar    
  24 C24            4.3138     3.3436     3.7927 C.ar    
  25 C25            4.5354     1.9977     3.5615 C.ar    
  26 C26            4.3567     1.4759     2.2942 C.ar    
  27 O27            4.4166    -1.6574    -0.1862 O.2     
  28 Cl28           4.5316     3.9985     5.3857 Cl      
  29 O29            5.4071     7.2571    -5.4599 O.3     
  30 C30            4.4740     8.1245    -6.1070 C.3     
  31 C31            5.2053     9.3641    -6.6262 C.3     
  32 C32            3.8219     7.3887    -7.2792 C.3     
  33 H33           -0.9606     1.4318    -0.5430 H       
  34 H34           -0.7501    -1.0182    -0.5971 H       
  35 H35            1.4680    -2.0722    -0.4808 H       
  36 H36            1.0468     2.8435    -0.3411 H       
  37 H37            6.4535     1.5566     0.3009 H       
  38 H38            6.6342     0.5756    -1.1909 H       
  39 H39            6.1700     3.3290    -1.2128 H       
  40 H40            5.6794     2.2365    -2.5416 H       
  41 H41            1.9920     5.5488    -3.0631 H       
  42 H42            2.9037     7.1304    -4.7076 H       
  43 H43            6.7990     5.4390    -4.1923 H       
  44 H44            5.9009     3.8569    -2.5409 H       
  45 H45            3.4382     4.2889     0.6745 H       
  46 H46            3.7462     5.2184     2.9336 H       
  47 H47            4.8436     1.3540     4.3721 H       
  48 H48            4.5296     0.4252     2.1136 H       
  49 H49            3.7057     8.4273    -5.3955 H       
  50 H50            5.9735     9.0612    -7.3377 H       
  51 H51            4.4935    10.0257    -7.1198 H       
  52 H52            5.6698     9.8883    -5.7910 H       
  53 H53            4.5901     7.0859    -7.9907 H       
  54 H54            3.3009     6.5056    -6.9093 H       
  55 H55            3.1101     8.0504    -7.7728 H       
@<TRIPOS>BOND
   1    1    2 ar
   2    1    6 ar
   3    1   33 1
   4    2    3 ar
   5    2   34 1
   6    3    4 ar
   7    3   35 1
   8    4    5 ar
   9    4    7 1
  10    5    6 ar
  11    5    9 1
  12    6   36 1
  13    7    8 am
  14    7   27 2
  15    8    9 1
  16    8   10 1
  17    9   21 1
  18    9   12 1
  19   10   11 1
  20   10   37 1
  21   10   38 1
  22   11   12 1
  23   11   39 1
  24   11   40 1
  25   12   13 am
  26   13   14 1
  27   13   20 2
  28   14   15 ar
  29   14   19 ar
  30   15   16 ar
  31   15   41 1
  32   16   17 ar
  33   16   42 1
  34   17   18 ar
  35   17   29 1
  36   18   19 ar
  37   18   43 1
  38   19   44 1
  39   21   22 ar
  40   21   26 ar
  41   22   23 ar
  42   22   45 1
  43   23   24 ar
  44   23   46 1
  45   24   25 ar
  46   24   28 1
  47   25   26 ar
  48   25   47 1
  49   26   48 1
  50   29   30 1
  51   30   31 1
  52   30   32 1
  53   30   49 1
  54   31   50 1
  55   31   51 1
  56   31   52 1
  57   32   53 1
  58   32   54 1
  59   32   55 1

#	End of record

