#	Name: ASD01140594
#	Creating user name:	WinNT
#	Creation time:	15. 06. 2019 19:01

#	Modifying user name:	WinNT
#	Modification time:	15. 06. 2019 19:01

#	Program:	/corina/corina34_cracker 3.40 0067  02.08.2006

@<TRIPOS>MOLECULE
ASD01140594
  47   50    0    0    0
SMALL
NO_CHARGES


@<TRIPOS>ATOM
   1 C1            -0.0163     1.3707     0.0106 C.ar    
   2 C2             0.0028    -0.0053     0.0036 C.ar    
   3 C3             1.2249    -0.6833    -0.0115 C.ar    
   4 C4             2.4149     0.0327    -0.0314 C.ar    
   5 C5             2.4005     1.4339    -0.0360 C.ar    
   6 C6             1.1718     2.0973     0.0027 C.ar    
   7 C7             1.2502    -2.1150    -0.0059 C.1     
   8 C8             1.2708    -3.2888    -0.0014 C.1     
   9 N9             1.0890     3.4908     0.0682 N.pl3   
  10 C10            3.6890     2.1316    -0.1143 C.2     
  11 N11            4.0543     3.1877     0.5231 N.2     
  12 C12            3.1713     3.8509     1.4895 C.3     
  13 C13            4.6900     1.5495    -1.0382 C.ar    
  14 C14            4.2756     0.7765    -2.1227 C.ar    
  15 C15            5.2127     0.2374    -2.9801 C.ar    
  16 C16            6.5609     0.4618    -2.7655 C.ar    
  17 C17            6.9781     1.2273    -1.6913 C.ar    
  18 C18            6.0503     1.7770    -0.8305 C.ar    
  19 N19            0.3695     5.5199    -0.1792 N.2     
  20 C20            0.1439     4.2804    -0.5110 C.2     
  21 C21            1.9379     4.3014     0.7481 C.2     
  22 C22            1.4758     5.5741     0.6101 C.2     
  23 C23            2.0643     6.7848     1.2048 C.2     
  24 O24            3.0608     6.6998     1.8955 O.2     
  25 O25            1.4981     7.9878     0.9836 O.3     
  26 C26            2.1323     9.1385     1.6017 C.3     
  27 C27            1.3541    10.4052     1.2403 C.3     
  28 C28            2.7824     2.8683     2.5959 C.3     
  29 H29           -0.9620     1.8923     0.0179 H       
  30 H30           -0.9240    -0.5597     0.0100 H       
  31 H31            3.3577    -0.4940    -0.0430 H       
  32 H32            1.2893    -4.3387     0.0027 H       
  33 H33            3.6788     4.7128     1.9227 H       
  34 H34            3.2235     0.6000    -2.2909 H       
  35 H35            4.8931    -0.3613    -3.8202 H       
  36 H36            7.2906     0.0375    -3.4391 H       
  37 H37            8.0319     1.3988    -1.5287 H       
  38 H38            6.3770     2.3781     0.0052 H       
  39 H39           -0.6614     3.9358    -1.1427 H       
  40 H40            2.1382     9.0122     2.6844 H       
  41 H41            3.1570     9.2262     1.2407 H       
  42 H42            1.8302    11.2690     1.7043 H       
  43 H43            1.3482    10.5315     0.1576 H       
  44 H44            0.3294    10.3175     1.6014 H       
  45 H45            3.6808     2.5226     3.1071 H       
  46 H46            2.1269     3.3664     3.3103 H       
  47 H47            2.2623     2.0160     2.1587 H       
@<TRIPOS>BOND
   1    1    2 ar
   2    1    6 ar
   3    1   29 1
   4    2    3 ar
   5    2   30 1
   6    3    4 ar
   7    3    7 1
   8    4    5 ar
   9    4   31 1
  10    5    6 ar
  11    5   10 1
  12    6    9 1
  13    7    8 3
  14    8   32 1
  15    9   21 1
  16    9   20 1
  17   10   11 2
  18   10   13 1
  19   11   12 1
  20   12   28 1
  21   12   21 1
  22   12   33 1
  23   13   14 ar
  24   13   18 ar
  25   14   15 ar
  26   14   34 1
  27   15   16 ar
  28   15   35 1
  29   16   17 ar
  30   16   36 1
  31   17   18 ar
  32   17   37 1
  33   18   38 1
  34   19   20 2
  35   19   22 1
  36   20   39 1
  37   21   22 2
  38   22   23 1
  39   23   24 2
  40   23   25 1
  41   25   26 1
  42   26   27 1
  43   26   40 1
  44   26   41 1
  45   27   42 1
  46   27   43 1
  47   27   44 1
  48   28   45 1
  49   28   46 1
  50   28   47 1

#	End of record

