#	Name: ASD01870109
#	Creating user name:	WinNT
#	Creation time:	15. 06. 2019 19:38

#	Modifying user name:	WinNT
#	Modification time:	15. 06. 2019 19:38

#	Program:	/corina/corina34_cracker 3.40 0067  02.08.2006

@<TRIPOS>MOLECULE
ASD01870109
  42   45    0    0    0
SMALL
NO_CHARGES


@<TRIPOS>ATOM
   1 C1            -0.0168     1.3860     0.0097 C.ar    
   2 C2             0.0021    -0.0041     0.0020 C.ar    
   3 C3            -1.1915    -0.7122     0.0101 C.ar    
   4 C4            -2.3954    -0.0355     0.0257 C.ar    
   5 C5            -2.4134     1.3494     0.0333 C.ar    
   6 C6            -1.2248     2.0593     0.0306 C.ar    
   7 F7            -3.5927     2.0085     0.0481 F       
   8 F8             1.1434     2.0782     0.0023 F       
   9 N9             1.2261    -0.6902    -0.0143 N.pl3   
  10 C10            1.4008    -2.0334    -0.0233 C.2     
  11 C11            2.7453    -2.2550    -0.0384 C.2     
  12 N12            3.3742    -1.0700    -0.0385 N.2     
  13 N13            2.5067    -0.1187    -0.0306 N.2     
  14 C14            3.4031    -3.5835    -0.0515 C.ar    
  15 C15            2.6336    -4.7427    -0.1543 C.ar    
  16 C16            3.2407    -5.9778    -0.1669 C.ar    
  17 C17            4.6325    -6.0731    -0.0770 C.ar    
  18 C18            5.3991    -4.9072     0.0254 C.ar    
  19 C19            4.7943    -3.6757     0.0331 C.ar    
  20 C20            5.5468    -7.2290    -0.0653 C.2     
  21 N21            6.8214    -6.8156     0.0388 N.am    
  22 C22            6.8391    -5.3499     0.1035 C.3     
  23 O23            5.1977    -8.3913    -0.1390 O.2     
  24 C24            7.9995    -7.6854     0.0806 C.3     
  25 C25            7.8992    -8.6222     1.2861 C.3     
  26 C26            8.0681    -8.5133    -1.2042 C.3     
  27 H27           -1.1789    -1.7921     0.0038 H       
  28 H28           -3.3240    -0.5870     0.0316 H       
  29 H29           -1.2409     3.1392     0.0365 H       
  30 H30            0.6242    -2.7840    -0.0190 H       
  31 H31            1.5583    -4.6706    -0.2238 H       
  32 H32            2.6419    -6.8731    -0.2458 H       
  33 H33            5.3921    -2.7797     0.1124 H       
  34 H34            7.4018    -4.9444    -0.7373 H       
  35 H35            7.2814    -5.0217     1.0442 H       
  36 H36            8.8986    -7.0755     0.1683 H       
  37 H37            7.8503    -8.0324     2.2015 H       
  38 H38            7.0001    -9.2322     1.1985 H       
  39 H39            8.7757    -9.2694     1.3173 H       
  40 H40            8.1396    -7.8459    -2.0631 H       
  41 H41            8.9446    -9.1605    -1.1731 H       
  42 H42            7.1690    -9.1232    -1.2919 H       
@<TRIPOS>BOND
   1    1    2 ar
   2    1    8 1
   3    1    6 ar
   4    2    3 ar
   5    2    9 1
   6    3    4 ar
   7    3   27 1
   8    4    5 ar
   9    4   28 1
  10    5    6 ar
  11    5    7 1
  12    6   29 1
  13    9   10 1
  14    9   13 1
  15   10   11 2
  16   10   30 1
  17   11   12 1
  18   11   14 1
  19   12   13 2
  20   14   15 ar
  21   14   19 ar
  22   15   16 ar
  23   15   31 1
  24   16   17 ar
  25   16   32 1
  26   17   18 ar
  27   17   20 1
  28   18   19 ar
  29   18   22 1
  30   19   33 1
  31   20   21 am
  32   20   23 2
  33   21   22 1
  34   21   24 1
  35   22   34 1
  36   22   35 1
  37   24   25 1
  38   24   26 1
  39   24   36 1
  40   25   37 1
  41   25   38 1
  42   25   39 1
  43   26   40 1
  44   26   41 1
  45   26   42 1

#	End of record

