#	Name: ASD02560173
#	Creating user name:	WinNT
#	Creation time:	15. 06. 2019 20:24

#	Modifying user name:	WinNT
#	Modification time:	15. 06. 2019 20:24

#	Program:	/corina/corina34_cracker 3.40 0067  02.08.2006

@<TRIPOS>MOLECULE
ASD02560173
  59   62    0    0    0
SMALL
NO_CHARGES


@<TRIPOS>ATOM
   1 Br1            1.3033     2.4475    -1.8382 Br      
   2 N2            -0.3631     1.4909     0.2452 N.2     
   3 N3            -0.6030     0.2811     0.1830 N.2     
   4 C4             1.0568     1.7649    -0.0111 C.3     
   5 N5             1.7300     0.4508     0.1451 N.3     
   6 C6             0.6105    -0.4859    -0.1269 C.3     
   7 S7             0.7295    -1.9418     0.9487 S.3     
   8 C8             0.6378    -1.2277     2.6137 C.3     
   9 C9             0.7246    -2.3294     3.6383 C.2     
  10 O10            0.8373    -3.4828     3.2805 O.2     
  11 N11            0.6770    -2.0330     4.9522 N.am    
  12 C12            2.7513     0.2967    -0.7952 C.ar    
  13 C13            0.6385    -3.0612     5.9004 C.ar    
  14 C14            0.9984    -2.8071     7.2176 C.ar    
  15 C15            0.9594    -3.8240     8.1510 C.ar    
  16 C16            0.5624    -5.0945     7.7754 C.ar    
  17 C17            0.2039    -5.3508     6.4649 C.ar    
  18 C18            0.2349    -4.3365     5.5278 C.ar    
  19 S19            0.5139    -6.3893     8.9694 S.o2    
  20 O20            0.6252    -7.6070     8.2455 O.2     
  21 O21            1.4135    -6.0151    10.0039 O.2     
  22 C22            4.0825     0.2822    -0.3772 C.ar    
  23 C23            2.4362     0.1533    -2.1378 C.ar    
  24 C24            3.4478     0.0010    -3.0653 C.ar    
  25 C25            4.7642    -0.0103    -2.6506 C.ar    
  26 C26            5.0854     0.1247    -1.3057 C.ar    
  27 C27            4.3580     0.4506     1.0940 C.3     
  28 N28           -1.0000    -6.3809     9.6405 N.am    
  29 C29            6.5428     0.0897    -0.9262 C.3     
  30 C30            6.7487     0.6753     0.4693 C.3     
  31 C31            5.7729    -0.0146     1.4324 C.3     
  32 C32            5.8645    -0.1773    -3.6667 C.3     
  33 C33            1.4316    -1.4231     7.6276 C.3     
  34 H34            1.4431     2.4782     0.7169 H       
  35 H35            0.6127    -0.7859    -1.1748 H       
  36 H36            1.4648    -0.5323     2.7569 H       
  37 H37           -0.3073    -0.6971     2.7299 H       
  38 H38            0.6695    -1.1068     5.2405 H       
  39 H39            1.2395    -3.6271     9.1753 H       
  40 H40           -0.1053    -6.3441     6.1747 H       
  41 H41           -0.0455    -4.5372     4.5043 H       
  42 H42            1.4044     0.1603    -2.4567 H       
  43 H43            3.2095    -0.1095    -4.1129 H       
  44 H44            4.2518     1.5019     1.3615 H       
  45 H45            3.6399    -0.1390     1.6639 H       
  46 H46           -1.6572    -5.7308     9.3465 H       
  47 H47           -1.2296    -7.0260    10.3275 H       
  48 H48            6.8926    -0.9426    -0.9380 H       
  49 H49            7.1163     0.6711    -1.6481 H       
  50 H50            7.7738     0.4975     0.7944 H       
  51 H51            6.5495     1.7467     0.4508 H       
  52 H52            6.0134     0.2616     2.4590 H       
  53 H53            5.8453    -1.0960     1.3161 H       
  54 H54            6.1757     0.8023    -4.0297 H       
  55 H55            6.7137    -0.6797    -3.2034 H       
  56 H56            5.5000    -0.7753    -4.5019 H       
  57 H57            0.5613    -0.8496     7.9465 H       
  58 H58            2.1419    -1.4938     8.4513 H       
  59 H59            1.9049    -0.9250     6.7814 H       
@<TRIPOS>BOND
   1    1    4 1
   2    2    3 2
   3    2    4 1
   4    3    6 1
   5    4    5 1
   6    4   34 1
   7    5    6 1
   8    5   12 1
   9    6    7 1
  10    6   35 1
  11    7    8 1
  12    8    9 1
  13    8   36 1
  14    8   37 1
  15    9   10 2
  16    9   11 am
  17   11   13 1
  18   11   38 1
  19   12   22 ar
  20   12   23 ar
  21   13   14 ar
  22   13   18 ar
  23   14   15 ar
  24   14   33 1
  25   15   16 ar
  26   15   39 1
  27   16   17 ar
  28   16   19 1
  29   17   18 ar
  30   17   40 1
  31   18   41 1
  32   19   20 2
  33   19   21 2
  34   19   28 am
  35   22   26 ar
  36   22   27 1
  37   23   24 ar
  38   23   42 1
  39   24   25 ar
  40   24   43 1
  41   25   26 ar
  42   25   32 1
  43   26   29 1
  44   27   31 1
  45   27   44 1
  46   27   45 1
  47   28   46 1
  48   28   47 1
  49   29   30 1
  50   29   48 1
  51   29   49 1
  52   30   31 1
  53   30   50 1
  54   30   51 1
  55   31   52 1
  56   31   53 1
  57   32   54 1
  58   32   55 1
  59   32   56 1
  60   33   57 1
  61   33   58 1
  62   33   59 1

#	End of record

