#	Name: ASD02770039
#	Creating user name:	WinNT
#	Creation time:	15. 06. 2019 20:26

#	Modifying user name:	WinNT
#	Modification time:	15. 06. 2019 20:26

#	Program:	/corina/corina34_cracker 3.40 0067  02.08.2006

@<TRIPOS>MOLECULE
ASD02770039
  31   31    0    0    0
SMALL
NO_CHARGES


@<TRIPOS>ATOM
   1 C1            -0.0172     1.4898    -0.0020 C.2     
   2 C2             0.0026    -0.0034     0.0118 C.2     
   3 O3             1.0254     2.1102    -0.0353 O.2     
   4 N4            -1.1929     2.1483     0.0169 N.am    
   5 O5            -1.0401    -0.6239     0.0451 O.2     
   6 N6             1.1783    -0.6620    -0.0127 N.am    
   7 C7             1.2005    -2.0572     0.0851 C.ar    
   8 C8             2.3275    -2.7048     0.5892 C.ar    
   9 C9             2.3435    -4.0865     0.6836 C.ar    
  10 C10            1.2438    -4.8205     0.2781 C.ar    
  11 C11            0.1259    -4.1791    -0.2223 C.ar    
  12 C12            0.0987    -2.8003    -0.3138 C.ar    
  13 O13            3.4082    -1.9819     0.9866 O.3     
  14 C14            4.5271    -2.7127     1.4926 C.3     
  15 C15           -1.2123     3.6131     0.0034 C.3     
  16 C16           -2.6611     4.1042     0.0298 C.3     
  17 O17           -3.2687     3.7295     1.2677 O.3     
  18 H18           -2.0263     1.6524     0.0395 H       
  19 H19            2.0089    -0.1685    -0.0983 H       
  20 H20            3.2152    -4.5909     1.0736 H       
  21 H21            1.2585    -5.8978     0.3522 H       
  22 H22           -0.7303    -4.7568    -0.5380 H       
  23 H23           -0.7778    -2.3018    -0.7006 H       
  24 H24            5.3184    -2.0175     1.7730 H       
  25 H25            4.2208    -3.2865     2.3673 H       
  26 H26            4.8955    -3.3916     0.7235 H       
  27 H27           -0.6844     3.9916     0.8787 H       
  28 H28           -0.7226     3.9747    -0.9008 H       
  29 H29           -2.6788     5.1895    -0.0698 H       
  30 H30           -3.2123     3.6546    -0.7962 H       
  31 H31           -4.1904     4.0090     1.3540 H       
@<TRIPOS>BOND
   1    1    2 1
   2    1    3 2
   3    1    4 am
   4    2    5 2
   5    2    6 am
   6    4   15 1
   7    4   18 1
   8    6    7 1
   9    6   19 1
  10    7    8 ar
  11    7   12 ar
  12    8    9 ar
  13    8   13 1
  14    9   10 ar
  15    9   20 1
  16   10   11 ar
  17   10   21 1
  18   11   12 ar
  19   11   22 1
  20   12   23 1
  21   13   14 1
  22   14   24 1
  23   14   25 1
  24   14   26 1
  25   15   16 1
  26   15   27 1
  27   15   28 1
  28   16   17 1
  29   16   29 1
  30   16   30 1
  31   17   31 1

#	End of record

