#	Name: ASD03240587
#	Creating user name:	WinNT
#	Creation time:	15. 06. 2019 20:35

#	Modifying user name:	WinNT
#	Modification time:	15. 06. 2019 20:35

#	Program:	/corina/corina34_cracker 3.40 0067  02.08.2006

@<TRIPOS>MOLECULE
ASD03240587
  56   61    0    0    0
SMALL
NO_CHARGES


@<TRIPOS>ATOM
   1 C1            -0.0166     1.3754     0.0096 C.ar    
   2 C2             0.0021    -0.0041     0.0020 C.ar    
   3 N3             1.1422    -0.6682    -0.0058 N.ar    
   4 C4             2.3145    -0.0482    -0.0058 C.ar    
   5 C5             2.3701     1.3444    -0.0123 C.ar    
   6 C6             1.1861     2.0697     0.0018 C.ar    
   7 N7             3.4822    -0.8057     0.0217 N.pl3   
   8 C8             4.3601    -0.7200     1.0990 C.ar    
   9 C9             4.9963     0.4887     1.4031 C.ar    
  10 C10            4.7631     1.6818     0.5617 C.2     
  11 N11            3.5943     2.0266    -0.0508 N.pl3   
  12 C12            4.6067    -1.8398     1.8817 C.ar    
  13 C13            5.4672    -1.7548     2.9597 C.ar    
  14 C14            6.0878    -0.5567     3.2688 C.ar    
  15 C15            5.8578     0.5645     2.4972 C.ar    
  16 N16            5.6690     2.5980     0.2784 N.2     
  17 C17            5.1321     3.5328    -0.5069 C.2     
  18 C18            3.8303     3.2037    -0.7344 C.2     
  19 C19            2.8592     3.9588    -1.5533 C.ar    
  20 C20            2.7643     5.3460    -1.4269 C.ar    
  21 C21            2.0365     3.2890    -2.4607 C.ar    
  22 C22            1.1324     4.0000    -3.2223 C.ar    
  23 C23            1.0402     5.3741    -3.0887 C.ar    
  24 C24            1.8559     6.0448    -2.1947 C.ar    
  25 C25            5.8439     4.7452    -1.0495 C.3     
  26 C26            0.0506     6.1443    -3.9244 C.3     
  27 N27           -1.0304     5.3002    -4.4509 N.3     
  28 C28           -0.4471     7.4363    -3.2552 C.3     
  29 C29           -0.3564     8.0960    -4.6414 C.3     
  30 C30            0.7076     7.0389    -4.9888 C.3     
  31 C31            6.4783     4.4027    -2.3991 C.3     
  32 H32           -0.9555     1.9091     0.0170 H       
  33 H33           -0.9306    -0.5486     0.0029 H       
  34 H34            1.2002     3.1496     0.0071 H       
  35 H35            3.6863    -1.3998    -0.7175 H       
  36 H36            4.1255    -2.7780     1.6482 H       
  37 H37            5.6564    -2.6288     3.5653 H       
  38 H38            6.7543    -0.4989     4.1166 H       
  39 H39            6.3434     1.4981     2.7403 H       
  40 H40            3.4004     5.8707    -0.7295 H       
  41 H41            2.1080     2.2165    -2.5665 H       
  42 H42            0.4954     3.4830    -3.9247 H       
  43 H43            1.7786     7.1174    -2.0950 H       
  44 H44            5.1294     5.5580    -1.1797 H       
  45 H45            6.6213     5.0533    -0.3504 H       
  46 H46           -0.6595     4.4775    -4.9022 H       
  47 H47           -1.6816     5.0502    -3.7219 H       
  48 H48           -1.4648     7.3652    -2.8713 H       
  49 H49            0.2526     7.8492    -2.5286 H       
  50 H50           -1.2697     8.0040    -5.2293 H       
  51 H51            0.0308     9.1146    -4.6157 H       
  52 H52            1.7235     7.3426    -4.7363 H       
  53 H53            0.6209     6.6491    -6.0030 H       
  54 H54            6.9931     5.2797    -2.7915 H       
  55 H55            7.1928     3.5899    -2.2689 H       
  56 H56            5.7009     4.0946    -3.0982 H       
@<TRIPOS>BOND
   1    1    2 ar
   2    1    6 ar
   3    1   32 1
   4    2    3 ar
   5    2   33 1
   6    3    4 ar
   7    4    5 ar
   8    4    7 1
   9    5    6 ar
  10    5   11 1
  11    6   34 1
  12    7    8 1
  13    7   35 1
  14    8    9 ar
  15    8   12 ar
  16    9   10 1
  17    9   15 ar
  18   10   11 1
  19   10   16 2
  20   11   18 1
  21   12   13 ar
  22   12   36 1
  23   13   14 ar
  24   13   37 1
  25   14   15 ar
  26   14   38 1
  27   15   39 1
  28   16   17 1
  29   17   18 2
  30   17   25 1
  31   18   19 1
  32   19   20 ar
  33   19   21 ar
  34   20   24 ar
  35   20   40 1
  36   21   22 ar
  37   21   41 1
  38   22   23 ar
  39   22   42 1
  40   23   24 ar
  41   23   26 1
  42   24   43 1
  43   25   31 1
  44   25   44 1
  45   25   45 1
  46   26   27 1
  47   26   28 1
  48   26   30 1
  49   27   46 1
  50   27   47 1
  51   28   29 1
  52   28   48 1
  53   28   49 1
  54   29   30 1
  55   29   50 1
  56   29   51 1
  57   30   52 1
  58   30   53 1
  59   31   54 1
  60   31   55 1
  61   31   56 1

#	End of record

