#	Name: ASD00431400
#	Creating user name:	WinNT
#	Creation time:	15. 06. 2019 18:35

#	Modifying user name:	WinNT
#	Modification time:	15. 06. 2019 18:35

#	Program:	/corina/corina34_cracker 3.40 0067  02.08.2006

@<TRIPOS>MOLECULE
ASD00431400
  54   56    0    0    0
SMALL
NO_CHARGES


@<TRIPOS>ATOM
   1 C1            -0.0866     1.2090     0.5763 C.2     
   2 N2            -0.0001    -0.0088     0.0053 N.am    
   3 O3             0.8946     1.7114     1.0875 O.2     
   4 O4            -1.2590     1.8712     0.5753 O.3     
   5 C5             1.2438    -0.6448    -0.1036 C.ar    
   6 C6             1.3302    -2.0258     0.0116 C.ar    
   7 C7             2.5561    -2.6520    -0.0957 C.ar    
   8 C8             3.7017    -1.9014    -0.3182 C.ar    
   9 C9             3.6160    -0.5213    -0.4329 C.ar    
  10 C10            2.3896     0.1052    -0.3324 C.ar    
  11 O11            4.9086    -2.5184    -0.4233 O.3     
  12 S12            6.5086    -4.2983    -1.7170 S.3     
  13 C13            5.1116    -3.3422    -1.4787 C.2     
  14 N14            4.2731    -3.5192    -2.4533 N.2     
  15 C15            4.6258    -4.3577    -3.4022 C.2     
  16 C16            5.8368    -4.9254    -3.2202 C.2     
  17 O17            6.7735    -7.1517    -5.7421 O.3     
  18 N18            5.9922    -6.3707    -5.2414 N.2     
  19 C19            6.4840    -5.8995    -4.1212 C.2     
  20 N20            7.6978    -6.4740    -3.9467 N.2     
  21 C21            7.8655    -7.2619    -4.9788 C.2     
  22 C22            9.0655    -8.1308    -5.2548 C.3     
  23 C23            8.7157    -9.5913    -4.9625 C.3     
  24 N24            9.4546    -7.9938    -6.6605 N.am    
  25 C25           10.7260    -8.2383    -7.0347 C.2     
  26 O26           11.5481    -8.5718    -6.2077 O.2     
  27 C27           11.1263    -8.0974    -8.4808 C.3     
  28 C28           -1.2785     3.1779     1.2083 C.3     
  29 C29           -0.2841     4.1015     0.5020 C.3     
  30 C30           -2.6851     3.7716     1.1090 C.3     
  31 C31           -0.8870     3.0373     2.6806 C.3     
  32 H32           -0.7988    -0.4450    -0.3302 H       
  33 H33            0.4387    -2.6101     0.1855 H       
  34 H34            2.6234    -3.7261    -0.0061 H       
  35 H35            4.5080     0.0625    -0.6057 H       
  36 H36            2.3224     1.1790    -0.4265 H       
  37 H37            3.9997    -4.5741    -4.2552 H       
  38 H38            9.8931    -7.8206    -4.6169 H       
  39 H39            8.4262    -9.6932    -3.9166 H       
  40 H40            7.8881    -9.9014    -5.6004 H       
  41 H41            9.5836   -10.2197    -5.1621 H       
  42 H42            8.7971    -7.7271    -7.3220 H       
  43 H43           11.4602    -7.0768    -8.6675 H       
  44 H44           11.9371    -8.7913    -8.7026 H       
  45 H45           10.2711    -8.3223    -9.1180 H       
  46 H46           -0.5630     4.2017    -0.5469 H       
  47 H47           -0.2987     5.0824     0.9772 H       
  48 H48            0.7180     3.6785     0.5727 H       
  49 H49           -3.3936     3.1136     1.6122 H       
  50 H50           -2.6998     4.7525     1.5842 H       
  51 H51           -2.9641     3.8718     0.0601 H       
  52 H52            0.1151     2.6142     2.7513 H       
  53 H53           -0.9017     4.0182     3.1557 H       
  54 H54           -1.5955     2.3792     3.1837 H       
@<TRIPOS>BOND
   1    1    2 am
   2    1    3 2
   3    1    4 1
   4    2    5 1
   5    2   32 1
   6    4   28 1
   7    5    6 ar
   8    5   10 ar
   9    6    7 ar
  10    6   33 1
  11    7    8 ar
  12    7   34 1
  13    8    9 ar
  14    8   11 1
  15    9   10 ar
  16    9   35 1
  17   10   36 1
  18   11   13 1
  19   12   13 1
  20   12   16 1
  21   13   14 2
  22   14   15 1
  23   15   16 2
  24   15   37 1
  25   16   19 1
  26   17   18 1
  27   17   21 1
  28   18   19 2
  29   19   20 1
  30   20   21 2
  31   21   22 1
  32   22   23 1
  33   22   24 1
  34   22   38 1
  35   23   39 1
  36   23   40 1
  37   23   41 1
  38   24   25 am
  39   24   42 1
  40   25   26 2
  41   25   27 1
  42   27   43 1
  43   27   44 1
  44   27   45 1
  45   28   29 1
  46   28   31 1
  47   28   30 1
  48   29   46 1
  49   29   47 1
  50   29   48 1
  51   30   49 1
  52   30   50 1
  53   30   51 1
  54   31   52 1
  55   31   53 1
  56   31   54 1

#	End of record

