#	Name: ASD01811512
#	Creating user name:	WinNT
#	Creation time:	15. 06. 2019 19:26

#	Modifying user name:	WinNT
#	Modification time:	15. 06. 2019 19:26

#	Program:	/corina/corina34_cracker 3.40 0067  02.08.2006

@<TRIPOS>MOLECULE
ASD01811512
  72   77    0    0    0
SMALL
NO_CHARGES


@<TRIPOS>ATOM
   1 C1            -0.1478    14.9550    -5.5129 C.1     
   2 C2            -0.2383    13.8759    -4.5759 C.ar    
   3 C3            -0.4633    12.5733    -5.0259 C.ar    
   4 C4            -0.5493    11.5385    -4.1177 C.ar    
   5 C5            -0.4137    11.7890    -2.7637 C.ar    
   6 C6            -0.1910    13.0774    -2.3109 C.ar    
   7 C7            -0.0961    14.1206    -3.2086 C.ar    
   8 N8            -0.0761    15.8110    -6.2562 N.1     
   9 N9            -1.4104     9.4356     0.6109 N.am    
  10 C10           -0.0317     9.9416     0.5686 C.3     
  11 C11            0.0351    11.1085    -0.4217 C.3     
  12 C12           -0.5094    10.6535    -1.7776 C.3     
  13 C13           -1.9727    10.2317    -1.6261 C.3     
  14 C14           -2.0622     9.0548    -0.6496 C.3     
  15 F15            0.2425     9.5687    -2.2415 F       
  16 C16           -2.0629     9.3178     1.7843 C.2     
  17 C17           -1.3566     9.5931     3.0539 C.ar    
  18 C18           -1.9764    10.3473     4.0485 C.ar    
  19 C19           -1.3041    10.6020     5.2412 C.ar    
  20 C20           -0.0148    10.1010     5.4334 C.ar    
  21 C21            0.5937     9.3545     4.4440 C.ar    
  22 C22           -0.0693     9.0933     3.2612 C.ar    
  23 O23           -3.2319     8.9852     1.7990 O.2     
  24 N24           -4.6165    12.9566    10.1682 N.3     
  25 C25           -5.2935    12.8004     8.8985 C.3     
  26 C26           -4.5412    13.5486     7.7848 C.3     
  27 C27           -3.3658    12.6753     7.3841 C.2     
  28 C28           -2.3417    12.3594     8.1961 C.2     
  29 C29           -2.2199    12.8298     9.6362 C.3     
  30 C30           -3.3984    12.2130    10.4081 C.3     
  31 C31           -1.9542    11.4020     6.3022 C.2     
  32 N32           -3.1383    12.0766     6.1840 N.pl3   
  33 N33           -1.4911    11.5862     7.5222 N.2     
  34 C34           -5.5554    12.8042    11.2877 C.3     
  35 C35            0.7142    10.3762     6.7233 C.3     
  36 C36            0.9470     9.1201     7.5794 C.3     
  37 C37            2.3414     9.6879     7.8926 C.3     
  38 C38            2.2416    10.4542     6.5631 C.3     
  39 H39           -0.5701    12.3765    -6.0824 H       
  40 H40           -0.7233    10.5306    -4.4644 H       
  41 H41           -0.0864    13.2660    -1.2527 H       
  42 H42            0.0826    15.1250    -2.8542 H       
  43 H43            0.2616    10.2865     1.5601 H       
  44 H44            0.6393     9.1468     0.2426 H       
  45 H45           -0.5658    11.9376    -0.0480 H       
  46 H46            1.0702    11.4308    -0.5348 H       
  47 H47           -2.5547    11.0691    -1.2411 H       
  48 H48           -2.3666     9.9299    -2.5966 H       
  49 H49           -1.5568     8.1878    -1.0749 H       
  50 H50           -3.1087     8.8147    -0.4618 H       
  51 H51           -2.9734    10.7328     3.8948 H       
  52 H52            1.5909     8.9694     4.5977 H       
  53 H53            0.4105     8.5049     2.4931 H       
  54 H54           -5.3455    11.7410     8.6474 H       
  55 H55           -6.3046    13.1995     8.9794 H       
  56 H56           -5.1991    13.7028     6.9296 H       
  57 H57           -4.1822    14.5080     8.1575 H       
  58 H58           -1.2765    12.4871    10.0613 H       
  59 H59           -2.2752    13.9176     9.6785 H       
  60 H60           -3.1745    12.2262    11.4748 H       
  61 H61           -3.5385    11.1816    10.0846 H       
  62 H62           -3.7052    12.1192     5.3981 H       
  63 H63           -6.0060    11.8123    11.2516 H       
  64 H64           -5.0206    12.9262    12.2296 H       
  65 H65           -6.3363    13.5610    11.2126 H       
  66 H66            0.2890    11.2113     7.2799 H       
  67 H67            0.2948     9.0585     8.4506 H       
  68 H68            0.9714     8.1962     7.0015 H       
  69 H69            2.3624    10.3353     8.7693 H       
  70 H70            3.1277     8.9331     7.9036 H       
  71 H71            2.6200     9.8950     5.7074 H       
  72 H72            2.6347    11.4696     6.6138 H       
@<TRIPOS>BOND
   1    1    2 1
   2    1    8 3
   3    2    3 ar
   4    2    7 ar
   5    3    4 ar
   6    3   39 1
   7    4    5 ar
   8    4   40 1
   9    5    6 ar
  10    5   12 1
  11    6    7 ar
  12    6   41 1
  13    7   42 1
  14    9   10 1
  15    9   14 1
  16    9   16 am
  17   10   11 1
  18   10   43 1
  19   10   44 1
  20   11   12 1
  21   11   45 1
  22   11   46 1
  23   12   13 1
  24   12   15 1
  25   13   14 1
  26   13   47 1
  27   13   48 1
  28   14   49 1
  29   14   50 1
  30   16   17 1
  31   16   23 2
  32   17   18 ar
  33   17   22 ar
  34   18   19 ar
  35   18   51 1
  36   19   20 ar
  37   19   31 1
  38   20   21 ar
  39   20   35 1
  40   21   22 ar
  41   21   52 1
  42   22   53 1
  43   24   25 1
  44   24   30 1
  45   24   34 1
  46   25   26 1
  47   25   54 1
  48   25   55 1
  49   26   27 1
  50   26   56 1
  51   26   57 1
  52   27   28 2
  53   27   32 1
  54   28   29 1
  55   28   33 1
  56   29   30 1
  57   29   58 1
  58   29   59 1
  59   30   60 1
  60   30   61 1
  61   31   32 1
  62   31   33 2
  63   32   62 1
  64   34   63 1
  65   34   64 1
  66   34   65 1
  67   35   36 1
  68   35   38 1
  69   35   66 1
  70   36   37 1
  71   36   67 1
  72   36   68 1
  73   37   38 1
  74   37   69 1
  75   37   70 1
  76   38   71 1
  77   38   72 1

#	End of record

