#	Name: ASD00960135
#	Creating user name:	WinNT
#	Creation time:	15. 06. 2019 18:53

#	Modifying user name:	WinNT
#	Modification time:	15. 06. 2019 18:53

#	Program:	/corina/corina34_cracker 3.40 0067  02.08.2006

@<TRIPOS>MOLECULE
ASD00960135
  49   51    0    0    0
SMALL
NO_CHARGES


@<TRIPOS>ATOM
   1 C1            -0.0189     1.5406     0.0105 C.3     
   2 C2             0.0021    -0.0041     0.0020 C.3     
   3 O3            -1.0943    -0.3927     0.8581 O.3     
   4 C4            -1.0543     0.5287     1.9695 C.3     
   5 C5            -2.4127     0.5753     2.6719 C.3     
   6 C6            -0.2140    -0.5240    -1.3959 C.2     
   7 C7             0.7551    -0.6882    -2.3280 C.2     
   8 N8            -1.4058    -0.9049    -1.9128 N.pl3   
   9 C9            -1.2114    -1.3223    -3.2130 C.2     
  10 C10            0.1493    -1.1932    -3.4961 C.2     
  11 N11           -2.7066    -0.9441    -1.3900 N.2     
  12 C12           -3.6953    -1.3677    -2.1295 C.2     
  13 N13           -3.5200    -1.7734    -3.3851 N.2     
  14 C14           -2.3249    -1.7672    -3.9544 C.2     
  15 N15           -2.1703    -2.1935    -5.2590 N.pl3   
  16 C16           -0.7298     1.8991     1.3346 C.3     
  17 C17            0.8016    -1.5118    -4.7304 C.1     
  18 O18           -2.7268    -0.7197     3.1880 O.3     
  19 C19            1.3364    -1.7731    -5.7424 C.1     
  20 Si20           2.2019    -2.1958    -7.3801 Si      
  21 C21            4.0243    -1.8395    -7.2294 C.3     
  22 C22            1.9520    -4.0010    -7.7667 C.3     
  23 C23            1.4781    -1.1613    -8.7501 C.3     
  24 O24            0.1409     2.6504     2.1829 O.3     
  25 *25            0.0367     4.0469     2.0191 Du      
  26 N26           -0.0051     0.1412     2.9157 N.2     
  27 N27           -0.0541    -0.8561     3.4318 N.1     
  28 N28           -0.1032    -1.8534     3.9479 N.pl3   
  29 O29            1.3126     2.0594     0.0006 O.3     
  30 *30            1.4358     3.3105    -0.6380 Du      
  31 H31           -0.5818     1.9196    -0.8424 H       
  32 H32            0.9460    -0.3730     0.4033 H       
  33 H33           -2.3737     1.2933     3.4911 H       
  34 H34           -3.1799     0.8784     1.9594 H       
  35 H35            1.8050    -0.4704    -2.1992 H       
  36 H36           -4.6894    -1.3901    -1.7081 H       
  37 H37           -2.9401    -2.4998    -5.7635 H       
  38 H38           -1.2920    -2.1867    -5.6706 H       
  39 H39           -1.6462     2.4554     1.1376 H       
  40 H40           -3.5766    -0.7645     3.6473 H       
  41 H41            4.4478    -2.4447    -6.4279 H       
  42 H42            4.5208    -2.0820    -8.1690 H       
  43 H43            4.1705    -0.7833    -7.0033 H       
  44 H44            0.8858    -4.2095    -7.8548 H       
  45 H45            2.4485    -4.2435    -8.7062 H       
  46 H46            2.3755    -4.6062    -6.9651 H       
  47 H47            1.6243    -0.1051    -8.5239 H       
  48 H48            1.9746    -1.4039    -9.6896 H       
  49 H49            0.4119    -1.3698    -8.8382 H       
@<TRIPOS>BOND
   1    1    2 1
   2    1   29 1
   3    1   16 1
   4    1   31 1
   5    2    3 1
   6    2    6 1
   7    2   32 1
   8    3    4 1
   9    4    5 1
  10    4   26 1
  11    4   16 1
  12    5   18 1
  13    5   33 1
  14    5   34 1
  15    6    7 2
  16    6    8 1
  17    7   10 1
  18    7   35 1
  19    8    9 1
  20    8   11 1
  21    9   10 2
  22    9   14 1
  23   10   17 1
  24   11   12 2
  25   12   13 1
  26   12   36 1
  27   13   14 2
  28   14   15 1
  29   15   37 1
  30   15   38 1
  31   16   24 1
  32   16   39 1
  33   17   19 3
  34   18   40 1
  35   19   20 1
  36   20   21 1
  37   20   22 1
  38   20   23 1
  39   21   41 1
  40   21   42 1
  41   21   43 1
  42   22   44 1
  43   22   45 1
  44   22   46 1
  45   23   47 1
  46   23   48 1
  47   23   49 1
  48   24   25 1
  49   26   27 2
  50   27   28 2
  51   29   30 1

#	End of record

