#	Name: ASD08070117
#	Creating user name:	WinNT
#	Creation time:	15. 06. 2019 21:14

#	Modifying user name:	WinNT
#	Modification time:	15. 06. 2019 21:14

#	Program:	/corina/corina34_cracker 3.40 0067  02.08.2006

@<TRIPOS>MOLECULE
ASD08070117
  39   39    0    0    0
SMALL
NO_CHARGES


@<TRIPOS>ATOM
   1 C1             0.0645     1.2609    -0.5526 C.ar    
   2 C2             0.0029    -0.0055     0.0192 C.ar    
   3 N3            -1.2004    -0.7225     0.0092 N.am    
   4 C4            -1.1835    -2.0657    -0.0999 C.2     
   5 O5            -0.1335    -2.6466    -0.2957 O.2     
   6 C6            -2.3835    -4.6178    -1.5877 C.3     
   7 C7            -2.3123    -4.2251    -0.1106 C.3     
   8 N8            -2.3306    -2.7651     0.0080 N.am    
   9 C9            -3.5144    -4.8123     0.6317 C.3     
  10 C10           -3.3789    -4.5260     2.1286 C.3     
  11 C11           -1.1201    -4.1376    -2.3046 C.3     
  12 C12            1.2543     1.9650    -0.5410 C.ar    
  13 C13           -1.1913    -4.5302    -3.7816 C.3     
  14 C14            1.1363    -0.5571     0.5993 C.ar    
  15 C15            2.3222     0.1524     0.6074 C.ar    
  16 C16            2.3813     1.4108     0.0385 C.ar    
  17 F17           -1.0351     1.7997    -1.1235 F       
  18 C18           -4.5811    -5.1131     2.8709 C.3     
  19 H19           -2.0458    -0.2523     0.0808 H       
  20 H20           -2.4594    -5.7018    -1.6722 H       
  21 H21           -3.2585    -4.1556    -2.0447 H       
  22 H22           -1.3914    -4.6135     0.3245 H       
  23 H23           -3.1683    -2.3016     0.1642 H       
  24 H24           -4.4309    -4.3572     0.2563 H       
  25 H25           -3.5508    -5.8895     0.4696 H       
  26 H26           -2.4624    -4.9811     2.5040 H       
  27 H27           -3.3425    -3.4488     2.2907 H       
  28 H28           -1.0442    -3.0535    -2.2200 H       
  29 H29           -0.2451    -4.5998    -1.8475 H       
  30 H30            1.3038     2.9483    -0.9849 H       
  31 H31           -0.2912    -4.1881    -4.2923 H       
  32 H32           -1.2672    -5.6143    -3.8661 H       
  33 H33           -2.0663    -4.0680    -4.2386 H       
  34 H34            1.0916    -1.5400     1.0445 H       
  35 H35            3.2041    -0.2770     1.0592 H       
  36 H36            3.3098     1.9624     0.0462 H       
  37 H37           -5.4976    -4.6581     2.4955 H       
  38 H38           -4.6174    -6.1904     2.7089 H       
  39 H39           -4.4845    -4.9092     3.9373 H       
@<TRIPOS>BOND
   1    1    2 ar
   2    1   12 ar
   3    1   17 1
   4    2   14 ar
   5    2    3 1
   6    3    4 am
   7    3   19 1
   8    4    5 2
   9    4    8 am
  10    6    7 1
  11    6   11 1
  12    6   20 1
  13    6   21 1
  14    7    9 1
  15    7    8 1
  16    7   22 1
  17    8   23 1
  18    9   10 1
  19    9   24 1
  20    9   25 1
  21   10   18 1
  22   10   26 1
  23   10   27 1
  24   11   13 1
  25   11   28 1
  26   11   29 1
  27   12   16 ar
  28   12   30 1
  29   13   31 1
  30   13   32 1
  31   13   33 1
  32   14   15 ar
  33   14   34 1
  34   15   16 ar
  35   15   35 1
  36   16   36 1
  37   18   37 1
  38   18   38 1
  39   18   39 1

#	End of record

