#	Name: ASD01913834
#	Creating user name:	WinNT
#	Creation time:	15. 06. 2019 20:02

#	Modifying user name:	WinNT
#	Modification time:	15. 06. 2019 20:02

#	Program:	/corina/corina34_cracker 3.40 0067  02.08.2006

@<TRIPOS>MOLECULE
ASD01913834
  44   46    0    0    0
SMALL
NO_CHARGES


@<TRIPOS>ATOM
   1 C1            -0.0200     1.4274     0.0503 C.ar    
   2 C2             0.0003    -0.0044     0.0304 C.1     
   3 C3             0.0169    -1.1781     0.0141 C.1     
   4 C4             0.0371    -2.6098    -0.0058 C.ar    
   5 C5            -1.1393    -3.3354    -0.2460 C.ar    
   6 C6             0.1561    -5.3344    -0.0290 C.ar    
   7 N7             1.2509    -4.6215     0.1892 N.ar    
   8 C8             1.2295    -3.3051     0.2079 C.ar    
   9 C9            -1.0689    -4.7140    -0.2557 C.ar    
  10 N10            0.2332    -6.7251    -0.0385 N.am    
  11 C11           -0.8328    -7.5439    -0.0277 C.2     
  12 C12           -0.3804    -8.9873    -0.0531 C.3     
  13 C13            1.0981    -8.9135    -0.5001 C.3     
  14 C14            1.4886    -7.4846    -0.0679 C.3     
  15 O15           -1.9889    -7.1787    -0.0011 O.2     
  16 C16            1.1561     2.1429     0.2903 C.ar    
  17 C17            1.1289     3.5217     0.3080 C.ar    
  18 C18           -1.2267     3.4948    -0.1551 C.ar    
  19 C19           -1.2148     2.1158    -0.1759 C.ar    
  20 C20           -0.0592     4.1966     0.0889 C.ar    
  21 C21            1.9433    -9.9602     0.2286 C.3     
  22 C22            1.2202    -9.0733    -2.0168 C.3     
  23 O23           -0.4807    -9.5658     1.2497 O.3     
  24 C24           -1.7314   -10.2080     1.5057 C.3     
  25 H25           -2.0769    -2.8280    -0.4186 H       
  26 H26            2.1426    -2.7578     0.3898 H       
  27 H27           -1.9547    -5.3047    -0.4370 H       
  28 H28           -0.9680    -9.5586    -0.7716 H       
  29 H29            2.1816    -7.0490    -0.7877 H       
  30 H30            1.9363    -7.5002     0.9259 H       
  31 H31            2.0840     1.6175     0.4618 H       
  32 H32            2.0370     4.0761     0.4936 H       
  33 H33           -2.1493     4.0283    -0.3297 H       
  34 H34           -2.1267     1.5695    -0.3664 H       
  35 H35           -0.0745     5.2763     0.1039 H       
  36 H36            1.5598   -10.9559     0.0058 H       
  37 H37            2.9787    -9.8868    -0.1041 H       
  38 H38            1.8934    -9.7836     1.3030 H       
  39 H39            0.6649    -8.2767    -2.5120 H       
  40 H40            2.2700    -9.0176    -2.3046 H       
  41 H41            0.8127   -10.0395    -2.3143 H       
  42 H42           -2.5385    -9.4814     1.4134 H       
  43 H43           -1.8816   -11.0114     0.7845 H       
  44 H44           -1.7279   -10.6212     2.5143 H       
@<TRIPOS>BOND
   1    1    2 1
   2    1   16 ar
   3    1   19 ar
   4    2    3 3
   5    3    4 1
   6    4    5 ar
   7    4    8 ar
   8    5    9 ar
   9    5   25 1
  10    6    7 ar
  11    6   10 1
  12    6    9 ar
  13    7    8 ar
  14    8   26 1
  15    9   27 1
  16   10   11 am
  17   10   14 1
  18   11   12 1
  19   11   15 2
  20   12   13 1
  21   12   23 1
  22   12   28 1
  23   13   14 1
  24   13   21 1
  25   13   22 1
  26   14   29 1
  27   14   30 1
  28   16   17 ar
  29   16   31 1
  30   17   20 ar
  31   17   32 1
  32   18   19 ar
  33   18   20 ar
  34   18   33 1
  35   19   34 1
  36   20   35 1
  37   21   36 1
  38   21   37 1
  39   21   38 1
  40   22   39 1
  41   22   40 1
  42   22   41 1
  43   23   24 1
  44   24   42 1
  45   24   43 1
  46   24   44 1

#	End of record

