#	Name: ASD01911899
#	Creating user name:	WinNT
#	Creation time:	15. 06. 2019 19:58

#	Modifying user name:	WinNT
#	Modification time:	15. 06. 2019 19:58

#	Program:	/corina/corina34_cracker 3.40 0067  02.08.2006

@<TRIPOS>MOLECULE
ASD01911899
  37   39    0    0    0
SMALL
NO_CHARGES


@<TRIPOS>ATOM
   1 C1            -1.0503    -0.4982    -2.0812 C.ar    
   2 C2            -1.0545     0.0501    -0.8026 C.ar    
   3 C3            -1.0141     1.4352    -0.6792 C.ar    
   4 N4            -0.9734     2.1764    -1.7742 N.ar    
   5 C5            -0.9708     1.6191    -2.9684 C.ar    
   6 N6            -1.0083     0.3112    -3.1267 N.ar    
   7 O7            -1.0974    -0.7468     0.2974 O.3     
   8 C8            -1.1387    -2.0920     0.1095 C.ar    
   9 C9             0.0155    -2.7785    -0.2317 C.ar    
  10 C10           -0.0271    -4.1600    -0.4242 C.ar    
  11 C11           -1.2335    -4.8451    -0.2720 C.ar    
  12 C12           -2.3839    -4.1508     0.0695 C.ar    
  13 C13           -2.3351    -2.7764     0.2652 C.ar    
  14 N14           -3.5939    -4.8357     0.2219 N.am    
  15 C15           -4.7556    -4.2302    -0.0949 C.2     
  16 C16           -6.0403    -4.9140     0.1643 C.ar    
  17 O17           -4.7468    -3.1217    -0.5938 O.2     
  18 C18           -6.0521    -6.1876     0.7375 C.ar    
  19 C19           -7.2513    -6.8281     0.9804 C.ar    
  20 C20           -8.4458    -6.2155     0.6586 C.ar    
  21 C21           -8.4488    -4.9413     0.0846 C.ar    
  22 C22           -7.2424    -4.2870    -0.1574 C.ar    
  23 C23           -9.6887    -4.3072    -0.2488 C.1     
  24 C24            1.1636    -4.8728    -0.7773 C.1     
  25 N25            2.1083    -5.4382    -1.0574 N.1     
  26 N26          -10.6723    -3.8041    -0.5132 N.1     
  27 H27           -1.0764    -1.5691    -2.2182 H       
  28 H28           -1.0163     1.8986     0.2963 H       
  29 H29           -0.9374     2.2524    -3.8427 H       
  30 H30            0.9471    -2.2448    -0.3489 H       
  31 H31           -1.2709    -5.9142    -0.4204 H       
  32 H32           -3.2327    -2.2382     0.5315 H       
  33 H33           -3.5970    -5.7465     0.5557 H       
  34 H34           -5.1212    -6.6729     0.9911 H       
  35 H35           -7.2545    -7.8128     1.4238 H       
  36 H36           -9.3801    -6.7222     0.8505 H       
  37 H37           -7.2389    -3.3020    -0.6005 H       
@<TRIPOS>BOND
   1    1    2 ar
   2    1    6 ar
   3    1   27 1
   4    2    3 ar
   5    2    7 1
   6    3    4 ar
   7    3   28 1
   8    4    5 ar
   9    5    6 ar
  10    5   29 1
  11    7    8 1
  12    8    9 ar
  13    8   13 ar
  14    9   10 ar
  15    9   30 1
  16   10   11 ar
  17   10   24 1
  18   11   12 ar
  19   11   31 1
  20   12   13 ar
  21   12   14 1
  22   13   32 1
  23   14   15 am
  24   14   33 1
  25   15   16 1
  26   15   17 2
  27   16   18 ar
  28   16   22 ar
  29   18   19 ar
  30   18   34 1
  31   19   20 ar
  32   19   35 1
  33   20   21 ar
  34   20   36 1
  35   21   22 ar
  36   21   23 1
  37   22   37 1
  38   23   26 3
  39   24   25 3

#	End of record

