#	Name: ASD01478113
#	Creating user name:	WinNT
#	Creation time:	15. 06. 2019 19:21

#	Modifying user name:	WinNT
#	Modification time:	15. 06. 2019 19:21

#	Program:	/corina/corina34_cracker 3.40 0067  02.08.2006

@<TRIPOS>MOLECULE
ASD01478113
  34   36    0    0    0
SMALL
NO_CHARGES


@<TRIPOS>ATOM
   1 C1             0.0870     1.7677    -0.5805 C.3     
   2 C2            -0.0438     0.2887    -0.1417 C.3     
   3 C3             1.3898    -0.2191     0.1109 C.3     
   4 C4             2.2032     1.0641     0.4103 C.3     
   5 C5             1.5942     2.0920    -0.5747 C.3     
   6 C6            -1.4697     1.5883     1.0825 C.3     
   7 O7            -0.5548     2.5213     0.4685 O.3     
   8 O8            -0.7480     0.3384     1.1160 O.3     
   9 O9             3.6130     0.8566     0.1312 O.3     
  10 C10            4.4916     1.5605     0.8680 C.2     
  11 O11            4.0920     2.3272     1.7207 O.2     
  12 O12            5.8131     1.4149     0.6598 O.3     
  13 C13            6.6476     2.0712     1.5089 C.ar    
  14 C14            6.8601     1.5828     2.7898 C.ar    
  15 C15            7.7089     2.2512     3.6507 C.ar    
  16 C16            8.3461     3.4063     3.2367 C.ar    
  17 C17            8.1360     3.8951     1.9605 C.ar    
  18 C18            7.2925     3.2272     1.0940 C.ar    
  19 N19            9.2544     4.1211     4.1615 N.pl3   
  20 O20            9.4399     3.6916     5.2860 O.2     
  21 O21            9.8162     5.1388     3.7978 O.2     
  22 H22           -0.3619     1.9437    -1.5580 H       
  23 H23           -0.5615    -0.3134    -0.8885 H       
  24 H24            1.4103    -0.8919     0.9682 H       
  25 H25            1.7790    -0.7187    -0.7762 H       
  26 H26            2.0554     1.3833     1.4420 H       
  27 H27            2.0160     1.9609    -1.5713 H       
  28 H28            1.7641     3.1080    -0.2186 H       
  29 H29           -1.7193     1.9103     2.0935 H       
  30 H30           -2.3729     1.4896     0.4803 H       
  31 H31            6.3621     0.6809     3.1139 H       
  32 H32            7.8747     1.8713     4.6480 H       
  33 H33            8.6345     4.7978     1.6396 H       
  34 H34            7.1318     3.6071     0.0959 H       
@<TRIPOS>BOND
   1    1    2 1
   2    1    5 1
   3    1    7 1
   4    1   22 1
   5    2    3 1
   6    2    8 1
   7    2   23 1
   8    3    4 1
   9    3   24 1
  10    3   25 1
  11    4    5 1
  12    4    9 1
  13    4   26 1
  14    5   27 1
  15    5   28 1
  16    6    7 1
  17    6    8 1
  18    6   29 1
  19    6   30 1
  20    9   10 1
  21   10   11 2
  22   10   12 1
  23   12   13 1
  24   13   14 ar
  25   13   18 ar
  26   14   15 ar
  27   14   31 1
  28   15   16 ar
  29   15   32 1
  30   16   17 ar
  31   16   19 1
  32   17   18 ar
  33   17   33 1
  34   18   34 1
  35   19   20 2
  36   19   21 2

#	End of record

