#	Name: ASD02408467
#	Creating user name:	WinNT
#	Creation time:	15. 06. 2019 20:21

#	Modifying user name:	WinNT
#	Modification time:	15. 06. 2019 20:21

#	Program:	/corina/corina34_cracker 3.40 0067  02.08.2006

@<TRIPOS>MOLECULE
ASD02408467
  41   42    0    0    0
SMALL
NO_CHARGES


@<TRIPOS>ATOM
   1 C1             0.2252     1.1423    -0.1869 C.2     
   2 C2             0.1459    -0.2578    -0.1230 C.2     
   3 N3            -1.1754    -0.5702    -0.0856 N.pl3   
   4 N4            -1.9106     0.6213    -0.1258 N.2     
   5 C5            -1.0929     1.6356    -0.1907 C.2     
   6 C6            -1.7357    -1.9220    -0.0160 C.3     
   7 C7            -2.5748    -2.0614     1.2558 C.3     
   8 C8            -1.6676    -1.9363     2.4815 C.3     
   9 C9            -1.7551    -2.1672    -2.5024 C.3     
  10 C10           -2.6194    -2.1714    -1.2399 C.3     
  11 C11            1.5521     1.7559    -0.2383 C.2     
  12 N12            2.6242     0.9296    -0.2208 N.am    
  13 N13            1.2790    -0.9775    -0.1109 N.2     
  14 O14            1.6872     2.9654    -0.2952 O.2     
  15 C15            2.4508    -0.4146    -0.1577 C.2     
  16 C16            3.6726    -1.2966    -0.1409 C.3     
  17 C17            3.2421    -2.7630    -0.0675 C.3     
  18 C18            4.4750    -3.6625    -0.1761 C.3     
  19 F19            5.3520    -3.3807     0.8769 F       
  20 C20            2.5379    -3.0217     1.2659 C.3     
  21 F21            4.0814    -5.0033    -0.1090 F       
  22 F22            5.1190    -3.4259    -1.3953 F       
  23 H23           -1.3784     2.6763    -0.2334 H       
  24 H24           -0.9253    -2.6507     0.0016 H       
  25 H25           -3.3299    -1.2758     1.2809 H       
  26 H26           -3.0636    -3.0356     1.2635 H       
  27 H27           -2.2490    -2.1231     3.3844 H       
  28 H28           -0.8602    -2.6652     2.4119 H       
  29 H29           -1.2474    -0.9313     2.5214 H       
  30 H30           -1.3406    -1.1708    -2.6556 H       
  31 H31           -0.9428    -2.8851    -2.3890 H       
  32 H32           -2.3661    -2.4426    -3.3619 H       
  33 H33           -3.1129    -3.1382    -1.1407 H       
  34 H34           -3.3711    -1.3854    -1.3115 H       
  35 H35            3.5200     1.3001    -0.2539 H       
  36 H36            4.2514    -1.1329    -1.0499 H       
  37 H37            4.2842    -1.0536     0.7280 H       
  38 H38            2.5589    -2.9825    -0.8879 H       
  39 H39            3.2212    -2.8021     2.0863 H       
  40 H40            1.6595    -2.3809     1.3432 H       
  41 H41            2.2312    -4.0663     1.3181 H       
@<TRIPOS>BOND
   1    1    2 2
   2    1   11 1
   3    1    5 1
   4    2    3 1
   5    2   13 1
   6    3    4 1
   7    3    6 1
   8    4    5 2
   9    5   23 1
  10    6    7 1
  11    6   10 1
  12    6   24 1
  13    7    8 1
  14    7   25 1
  15    7   26 1
  16    8   27 1
  17    8   28 1
  18    8   29 1
  19    9   10 1
  20    9   30 1
  21    9   31 1
  22    9   32 1
  23   10   33 1
  24   10   34 1
  25   11   12 am
  26   11   14 2
  27   12   15 1
  28   12   35 1
  29   13   15 2
  30   15   16 1
  31   16   17 1
  32   16   36 1
  33   16   37 1
  34   17   18 1
  35   17   20 1
  36   17   38 1
  37   18   19 1
  38   18   21 1
  39   18   22 1
  40   20   39 1
  41   20   40 1
  42   20   41 1

#	End of record

