#	Name: ASD02038534
#	Creating user name:	WinNT
#	Creation time:	15. 06. 2019 20:16

#	Modifying user name:	WinNT
#	Modification time:	15. 06. 2019 20:16

#	Program:	/corina/corina34_cracker 3.40 0067  02.08.2006

@<TRIPOS>MOLECULE
ASD02038534
  46   49    0    0    0
SMALL
NO_CHARGES


@<TRIPOS>ATOM
   1 Cl1            7.5195     3.7361    -1.7295 Cl      
   2 C2            -0.0179     1.4666     0.0101 C.3     
   3 N3             0.0021    -0.0041     0.0020 N.am    
   4 C4            -0.7052    -0.7105     0.9060 C.2     
   5 C5             0.8140    -0.6834    -1.0191 C.3     
   6 C6             2.2274    -0.0922    -0.9896 C.3     
   7 N7             2.1471     1.3678    -1.1301 N.3     
   8 C8             3.4195     1.9280    -1.2720 C.ar    
   9 C9             3.5623     3.3020    -1.4189 C.ar    
  10 C10            4.8206     3.8536    -1.5590 C.ar    
  11 C11            5.9393     3.0391    -1.5531 C.ar    
  12 C12            5.8004     1.6691    -1.4073 C.ar    
  13 C13            4.5435     1.1127    -1.2606 C.ar    
  14 C14            1.4284     1.9731    -0.0010 C.3     
  15 C15           -0.6704    -2.2168     0.8795 C.3     
  16 O16           -1.4938    -2.7308     1.9283 O.3     
  17 C17           -1.5730    -4.0832     2.0444 C.ar    
  18 C18           -2.3541    -4.6466     3.0402 C.ar    
  19 O19           -1.3697    -0.1338     1.7408 O.2     
  20 C20           -2.4336    -6.0260     3.1563 C.ar    
  21 C21           -1.7270    -6.8412     2.2701 C.ar    
  22 C22           -0.9475    -6.2705     1.2756 C.ar    
  23 C23           -0.8752    -4.8964     1.1608 C.ar    
  24 Cl24           7.2061     0.6504    -1.4016 Cl      
  25 N25           -3.1141    -6.8731     4.0277 N.am    
  26 C26           -2.8349    -8.1455     3.6882 C.2     
  27 N27           -2.0007    -8.1604     2.6315 N.am    
  28 O28           -3.2698    -9.1326     4.2515 O.2     
  29 H29           -0.5401     1.8305    -0.8747 H       
  30 H30           -0.5231     1.8210     0.9086 H       
  31 H31            0.8587    -1.7504    -0.8010 H       
  32 H32            0.3717    -0.5261    -2.0028 H       
  33 H33            2.7060    -0.3407    -0.0423 H       
  34 H34            2.8116    -0.5052    -1.8120 H       
  35 H35            2.6898     3.9385    -1.4239 H       
  36 H36            4.9316     4.9217    -1.6736 H       
  37 H37            4.4352     0.0442    -1.1465 H       
  38 H38            1.4330     3.0580    -0.1064 H       
  39 H39            1.9180     1.6958     0.9325 H       
  40 H40           -1.0423    -2.5720    -0.0815 H       
  41 H41            0.3547    -2.5591     1.0215 H       
  42 H42           -2.8992    -4.0133     3.7243 H       
  43 H43           -0.4003    -6.8999     0.5895 H       
  44 H44           -0.2678    -4.4523     0.3859 H       
  45 H45           -3.6909    -6.5936     4.7558 H       
  46 H46           -1.6499    -8.9530     2.1960 H       
@<TRIPOS>BOND
   1    1   11 1
   2    2    3 1
   3    2   14 1
   4    2   29 1
   5    2   30 1
   6    3    4 am
   7    3    5 1
   8    4   15 1
   9    4   19 2
  10    5    6 1
  11    5   31 1
  12    5   32 1
  13    6    7 1
  14    6   33 1
  15    6   34 1
  16    7    8 1
  17    7   14 1
  18    8    9 ar
  19    8   13 ar
  20    9   10 ar
  21    9   35 1
  22   10   11 ar
  23   10   36 1
  24   11   12 ar
  25   12   13 ar
  26   12   24 1
  27   13   37 1
  28   14   38 1
  29   14   39 1
  30   15   16 1
  31   15   40 1
  32   15   41 1
  33   16   17 1
  34   17   18 ar
  35   17   23 ar
  36   18   20 ar
  37   18   42 1
  38   20   21 ar
  39   20   25 1
  40   21   22 ar
  41   21   27 1
  42   22   23 ar
  43   22   43 1
  44   23   44 1
  45   25   26 am
  46   25   45 1
  47   26   27 am
  48   26   28 2
  49   27   46 1

#	End of record

