#	Name: ASD01830038
#	Creating user name:	WinNT
#	Creation time:	15. 06. 2019 19:36

#	Modifying user name:	WinNT
#	Modification time:	15. 06. 2019 19:36

#	Program:	/corina/corina34_cracker 3.40 0067  02.08.2006

@<TRIPOS>MOLECULE
ASD01830038
  77   79    0    0    0
SMALL
NO_CHARGES


@<TRIPOS>ATOM
   1 Cl1            0.0000     0.0000     0.0000 Cl      
   2 H2             0.0000     1.3700     0.0000 H       
   3 Cl3            5.0000     6.3700     5.0000 Cl      
   4 H4             5.0000     7.7400     5.0000 H       
   5 C5            13.5133    29.4466    19.9807 C.3     
   6 O6            14.7360    28.9225    19.4589 O.3     
   7 C7            14.8331    28.9823    18.0345 C.3     
   8 H8            13.8372    28.9056    17.5983 H       
   9 C9            15.4714    30.3113    17.6209 C.3     
  10 C10           15.6267    30.3418    16.0979 C.3     
  11 C11           16.4725    29.1468    15.6522 C.3     
  12 N12           15.8193    27.8999    16.0707 N.3     
  13 C13           15.7011    27.8262    17.5326 C.3     
  14 C14           16.4945    26.7889    15.5675 C.2     
  15 S15           18.2404    26.6361    15.3869 S.3     
  16 C16           18.0363    25.0146    14.7325 C.2     
  17 N17           19.0693    24.1819    14.3206 N.pl3   
  18 C18           18.7847    22.9181    13.8189 C.ar    
  19 N19           17.5250    22.4970    13.7234 N.ar    
  20 C20           17.2461    21.3000    13.2488 C.ar    
  21 N21           18.1893    20.4708    12.8507 N.ar    
  22 C22           19.4740    20.8157    12.9133 C.ar    
  23 N23           20.4609    19.9355    12.4916 N.3     
  24 C24           21.4349    19.6838    13.5628 C.3     
  25 C25           22.5467    18.7743    13.0344 C.3     
  26 N26           21.9595    17.5157    12.5539 N.3     
  27 C27           23.0040    16.5842    12.1075 C.3     
  28 C28           22.3568    15.3983    11.3894 C.3     
  29 C29           23.4283    14.4427    10.9315 C.2     
  30 O30           23.0917    13.3221    10.2737 O.3     
  31 O31           24.5904    14.6852    11.1564 O.2     
  32 C32           20.9855    17.7675    11.4827 C.3     
  33 C33           19.8737    18.6769    12.0111 C.3     
  34 C34           19.8122    22.0749    13.4030 C.ar    
  35 F35           21.1033    22.4658    13.4779 F       
  36 N36           16.7773    24.7159    14.6942 N.2     
  37 C37           15.9226    25.6410    15.1393 C.2     
  38 C38           14.4578    25.4270    15.1582 C.ar    
  39 C39           13.5951    26.4536    14.7731 C.ar    
  40 C40           12.2308    26.2483    14.7923 C.ar    
  41 C41           11.7176    25.0264    15.1927 C.ar    
  42 Cl42          10.0000    24.7753    15.2143 Cl      
  43 C43           12.5691    24.0036    15.5756 C.ar    
  44 C44           13.9348    24.1958    15.5558 C.ar    
  45 C45           12.0026    22.6765    16.0101 C.3     
  46 F46           13.0487    21.8105    16.3464 F       
  47 F47           11.1764    22.8641    17.1234 F       
  48 F48           11.2569    22.1227    14.9640 F       
  49 H49           12.6738    28.8806    19.5770 H       
  50 H50           13.5175    29.3650    21.0676 H       
  51 H51           13.4159    30.4941    19.6953 H       
  52 H52           14.8337    31.1361    17.9387 H       
  53 H53           16.4512    30.4060    18.0889 H       
  54 H54           14.6435    30.2862    15.6307 H       
  55 H55           16.1196    31.2675    15.8009 H       
  56 H56           16.5730    29.1576    14.5669 H       
  57 H57           17.4601    29.2104    16.1089 H       
  58 H58           16.6925    27.8953    17.9804 H       
  59 H59           15.2413    26.8785    17.8130 H       
  60 H60           19.9892    24.4829    14.3833 H       
  61 H61           16.2138    20.9892    13.1846 H       
  62 H62           21.8648    20.6294    13.8930 H       
  63 H63           20.9357    19.1983    14.4014 H       
  64 H64           23.0635    19.2712    12.2134 H       
  65 H65           23.2549    18.5627    13.8355 H       
  66 H66           23.6807    17.0974    11.4243 H       
  67 H67           23.5634    16.2246    12.9712 H       
  68 H68           21.6801    14.8851    12.0726 H       
  69 H69           21.7973    15.7579    10.5258 H       
  70 H70           23.8137    12.7400    10.0000 H       
  71 H71           21.4847    18.2529    10.6441 H       
  72 H72           20.5556    16.8218    11.1524 H       
  73 H73           19.3569    18.1800    12.8321 H       
  74 H74           19.1655    18.8885    11.2100 H       
  75 H75           13.9944    27.4073    14.4609 H       
  76 H76           11.5621    27.0424    14.4947 H       
  77 H77           14.5981    23.3961    15.8506 H       
@<TRIPOS>BOND
   1    1    2 1
   2    3    4 1
   3    5    6 1
   4    5   49 1
   5    5   50 1
   6    5   51 1
   7    6    7 1
   8    7    8 1
   9    7   13 1
  10    7    9 1
  11    9   10 1
  12    9   52 1
  13    9   53 1
  14   10   11 1
  15   10   54 1
  16   10   55 1
  17   11   12 1
  18   11   56 1
  19   11   57 1
  20   12   13 1
  21   12   14 1
  22   13   58 1
  23   13   59 1
  24   14   37 2
  25   14   15 1
  26   15   16 1
  27   16   17 1
  28   16   36 2
  29   17   18 1
  30   17   60 1
  31   18   34 ar
  32   18   19 ar
  33   19   20 ar
  34   20   21 ar
  35   20   61 1
  36   21   22 ar
  37   22   23 1
  38   22   34 ar
  39   23   33 1
  40   23   24 1
  41   24   25 1
  42   24   62 1
  43   24   63 1
  44   25   26 1
  45   25   64 1
  46   25   65 1
  47   26   27 1
  48   26   32 1
  49   27   28 1
  50   27   66 1
  51   27   67 1
  52   28   29 1
  53   28   68 1
  54   28   69 1
  55   29   30 1
  56   29   31 2
  57   30   70 1
  58   32   33 1
  59   32   71 1
  60   32   72 1
  61   33   73 1
  62   33   74 1
  63   34   35 1
  64   36   37 1
  65   37   38 1
  66   38   44 ar
  67   38   39 ar
  68   39   40 ar
  69   39   75 1
  70   40   41 ar
  71   40   76 1
  72   41   42 1
  73   41   43 ar
  74   43   44 ar
  75   43   45 1
  76   44   77 1
  77   45   46 1
  78   45   47 1
  79   45   48 1

#	End of record

