#	Name: ASD01000130
#	Creating user name:	WinNT
#	Creation time:	15. 06. 2019 18:54

#	Modifying user name:	WinNT
#	Modification time:	15. 06. 2019 18:54

#	Program:	/corina/corina34_cracker 3.40 0067  02.08.2006

@<TRIPOS>MOLECULE
ASD01000130
  63   66    0    0    0
SMALL
NO_CHARGES


@<TRIPOS>ATOM
   1 N1            -0.1539     1.4478     0.7605 N.am    
   2 C2            -0.3215     0.0173     1.0749 C.3     
   3 O3            -0.9225     3.4838     0.3162 O.2     
   4 C4             1.2629     1.8040     0.9260 C.3     
   5 C5             2.0129     0.5202     1.3394 C.3     
   6 C6             1.0752    -0.6080     0.8340 C.3     
   7 C7             1.2528    -1.8633     1.6487 C.ar    
   8 C8             1.5294    -3.0642     1.0181 C.ar    
   9 C9             1.6931    -4.2176     1.7667 C.ar    
  10 C10            1.5808    -4.1698     3.1429 C.ar    
  11 C11            1.3042    -2.9685     3.7736 C.ar    
  12 C12            1.1453    -1.8145     3.0257 C.ar    
  13 C13           -1.1358     2.2884     0.3789 C.2     
  14 N14           -2.3542     1.8040     0.0667 N.am    
  15 C15           -3.5049     2.7077    -0.0070 C.3     
  16 C16            1.8244     2.3320    -0.3957 C.3     
  17 C17            1.4061     2.8500     2.0014 C.ar    
  18 C18            0.4463     2.9608     2.9900 C.ar    
  19 C19            0.5777     3.9204     3.9764 C.ar    
  20 C20            1.6691     4.7688     3.9744 C.ar    
  21 C21            2.6293     4.6574     2.9863 C.ar    
  22 C22            2.5001     3.6950     2.0023 C.ar    
  23 O23            1.1127     3.5105    -0.7787 O.3     
  24 C24           -2.5278     0.3738    -0.1989 C.3     
  25 C25           -4.1005     2.6638    -1.4169 C.3     
  26 C26           -5.3380     3.5627    -1.4708 C.3     
  27 N27           -6.3253     3.0978    -0.4882 N.3     
  28 C28           -5.7923     3.1757     0.8778 C.3     
  29 C29           -4.5684     2.2653     1.0019 C.3     
  30 C30           -7.5810     3.8509    -0.6070 C.3     
  31 F31            1.6391    -3.1110    -0.3276 F       
  32 F32            1.1940    -2.9218     5.1193 F       
  33 F33           -3.1520     3.1191    -2.3390 F       
  34 H34           -0.6198    -0.1100     2.1156 H       
  35 H35           -1.0586    -0.4334     0.4103 H       
  36 H36            2.9834     0.4648     0.8462 H       
  37 H37            2.1260     0.4715     2.4224 H       
  38 H38            1.2374    -0.8055    -0.2256 H       
  39 H39            1.9081    -5.1547     1.2747 H       
  40 H40            1.7085    -5.0694     3.7267 H       
  41 H41            0.9339    -0.8768     3.5179 H       
  42 H42           -3.1850     3.7243     0.2218 H       
  43 H43            2.8811     2.5697    -0.2724 H       
  44 H44            1.7108     1.5717    -1.1683 H       
  45 H45           -0.4063     2.2980     2.9916 H       
  46 H46           -0.1725     4.0074     4.7484 H       
  47 H47            1.7713     5.5189     4.7446 H       
  48 H48            3.4818     5.3204     2.9845 H       
  49 H49            3.2523     3.6055     1.2325 H       
  50 H50            1.4163     3.9006    -1.6098 H       
  51 H51           -2.6333    -0.1609     0.7451 H       
  52 H52           -3.4217     0.2225    -0.8040 H       
  53 H53           -1.6576    -0.0044    -0.7353 H       
  54 H54           -4.3836     1.6398    -1.6606 H       
  55 H55           -5.0517     4.5889    -1.2405 H       
  56 H56           -5.7728     3.5225    -2.4695 H       
  57 H57           -5.5039     4.2037     1.0971 H       
  58 H58           -6.5570     2.8544     1.5850 H       
  59 H59           -4.8589     1.2350     0.7962 H       
  60 H60           -4.1637     2.3352     2.0116 H       
  61 H61           -7.9927     3.7154    -1.6072 H       
  62 H62           -8.2945     3.4865     0.1320 H       
  63 H63           -7.3875     4.9096    -0.4341 H       
@<TRIPOS>BOND
   1    1    2 1
   2    1    4 1
   3    1   13 am
   4    2    6 1
   5    2   34 1
   6    2   35 1
   7    3   13 2
   8    4    5 1
   9    4   16 1
  10    4   17 1
  11    5    6 1
  12    5   36 1
  13    5   37 1
  14    6    7 1
  15    6   38 1
  16    7    8 ar
  17    7   12 ar
  18    8    9 ar
  19    8   31 1
  20    9   10 ar
  21    9   39 1
  22   10   11 ar
  23   10   40 1
  24   11   12 ar
  25   11   32 1
  26   12   41 1
  27   13   14 am
  28   14   15 1
  29   14   24 1
  30   15   25 1
  31   15   29 1
  32   15   42 1
  33   16   23 1
  34   16   43 1
  35   16   44 1
  36   17   18 ar
  37   17   22 ar
  38   18   19 ar
  39   18   45 1
  40   19   20 ar
  41   19   46 1
  42   20   21 ar
  43   20   47 1
  44   21   22 ar
  45   21   48 1
  46   22   49 1
  47   23   50 1
  48   24   51 1
  49   24   52 1
  50   24   53 1
  51   25   26 1
  52   25   33 1
  53   25   54 1
  54   26   27 1
  55   26   55 1
  56   26   56 1
  57   27   28 1
  58   27   30 1
  59   28   29 1
  60   28   57 1
  61   28   58 1
  62   29   59 1
  63   29   60 1
  64   30   61 1
  65   30   62 1
  66   30   63 1

#	End of record

