#	Name: ASD02198035
#	Creating user name:	WinNT
#	Creation time:	15. 06. 2019 20:18

#	Modifying user name:	WinNT
#	Modification time:	15. 06. 2019 20:18

#	Program:	/corina/corina34_cracker 3.40 0067  02.08.2006

@<TRIPOS>MOLECULE
ASD02198035
  39   41    0    0    0
SMALL
NO_CHARGES


@<TRIPOS>ATOM
   1 C1             0.5529     1.3801    -0.6368 C.2     
   2 C2             0.4626     0.0069    -0.5479 C.2     
   3 C3            -0.7722    -0.6808    -0.3174 C.1     
   4 S4             2.1629     1.8671    -0.9150 S.3     
   5 C5             2.7348     0.2065    -0.9139 C.2     
   6 C6             1.6806    -0.6510    -0.7024 C.2     
   7 C7             4.0730    -0.1880    -1.1015 C.2     
   8 O8             4.3884    -1.3581    -0.9659 O.2     
   9 C9             5.0971     0.8173    -1.4633 C.ar    
  10 N10            1.8164    -2.0292    -0.6480 N.pl3   
  11 N11           -0.5140     2.2413    -0.5223 N.pl3   
  12 N12           -1.7517    -1.2264    -0.1346 N.1     
  13 C13           -0.2987     3.6219    -0.5036 C.ar    
  14 C14           -1.2119     4.4772    -1.1073 C.ar    
  15 C15           -0.9963     5.8411    -1.0866 C.ar    
  16 C16            0.1272     6.3557    -0.4658 C.ar    
  17 C17            1.0385     5.5072     0.1358 C.ar    
  18 C18            0.8261     4.1426     0.1237 C.ar    
  19 C19            4.7427     1.9405    -2.2117 C.ar    
  20 C20            5.7021     2.8740    -2.5457 C.ar    
  21 C21            7.0132     2.6983    -2.1403 C.ar    
  22 C22            7.3712     1.5866    -1.3985 C.ar    
  23 C23            6.4201     0.6489    -1.0527 C.ar    
  24 C24            8.0560     3.7220    -2.5088 C.3     
  25 H25            2.6899    -2.4354    -0.7621 H       
  26 H26            1.0380    -2.5876    -0.4960 H       
  27 H27           -1.4157     1.8901    -0.4546 H       
  28 H28           -2.0893     4.0759    -1.5927 H       
  29 H29           -1.7056     6.5065    -1.5561 H       
  30 H30            0.2934     7.4227    -0.4510 H       
  31 H31            1.9150     5.9123     0.6195 H       
  32 H32            1.5380     3.4805     0.5940 H       
  33 H33            3.7196     2.0786    -2.5290 H       
  34 H34            5.4291     3.7436    -3.1251 H       
  35 H35            8.3964     1.4550    -1.0854 H       
  36 H36            6.7007    -0.2182    -0.4733 H       
  37 H37            8.1084     4.4835    -1.7307 H       
  38 H38            9.0259     3.2340    -2.6055 H       
  39 H39            7.7880     4.1887    -3.4566 H       
@<TRIPOS>BOND
   1    1    2 2
   2    1    4 1
   3    1   11 1
   4    2    3 1
   5    2    6 1
   6    3   12 3
   7    4    5 1
   8    5    6 2
   9    5    7 1
  10    6   10 1
  11    7    8 2
  12    7    9 1
  13    9   19 ar
  14    9   23 ar
  15   10   25 1
  16   10   26 1
  17   11   13 1
  18   11   27 1
  19   13   14 ar
  20   13   18 ar
  21   14   15 ar
  22   14   28 1
  23   15   16 ar
  24   15   29 1
  25   16   17 ar
  26   16   30 1
  27   17   18 ar
  28   17   31 1
  29   18   32 1
  30   19   20 ar
  31   19   33 1
  32   20   21 ar
  33   20   34 1
  34   21   22 ar
  35   21   24 1
  36   22   23 ar
  37   22   35 1
  38   23   36 1
  39   24   37 1
  40   24   38 1
  41   24   39 1

#	End of record

