#	Name: ASD01918195
#	Creating user name:	WinNT
#	Creation time:	15. 06. 2019 20:11

#	Modifying user name:	WinNT
#	Modification time:	15. 06. 2019 20:11

#	Program:	/corina/corina34_cracker 3.40 0067  02.08.2006

@<TRIPOS>MOLECULE
ASD01918195
  37   39    0    0    0
SMALL
NO_CHARGES


@<TRIPOS>ATOM
   1 N1             0.0473     1.3150     0.1431 N.ar    
   2 C2             0.0753    -0.0009     0.1566 C.ar    
   3 C3             1.2775    -0.6868     0.1826 C.ar    
   4 C4             2.4683     0.0254     0.1946 C.ar    
   5 C5             2.4117     1.4082     0.1800 C.ar    
   6 C6             1.1643     2.0354     0.1539 C.ar    
   7 N7             1.0915     3.4009     0.1388 N.2     
   8 N8            -0.0583     3.9852     0.1142 N.2     
   9 C9            -0.1310     5.3472     0.0991 C.ar    
  10 C10           -1.4429     7.3704     0.0629 C.ar    
  11 C11           -1.3750     5.9795     0.0783 C.ar    
  12 C12            1.0434     6.1119     0.1103 C.ar    
  13 C13            0.9758     7.4861     0.0951 C.ar    
  14 C14           -0.2584     8.1268     0.0690 C.ar    
  15 N15           -0.3204     9.5148     0.0538 N.am    
  16 C16            0.7070    10.2298    -0.4460 C.2     
  17 O17            1.7158     9.6645    -0.8194 O.2     
  18 C18            0.6064    11.7045    -0.5401 C.ar    
  19 C19            1.6720    12.4380    -1.0577 C.ar    
  20 N20           -0.5002    12.3159    -0.1356 N.ar    
  21 C21           -0.6299    13.6230    -0.2021 C.ar    
  22 C22            1.5630    13.8171    -1.1393 C.ar    
  23 C23            0.3916    14.4151    -0.7010 C.ar    
  24 C24           -2.7151     8.0275     0.0419 C.1     
  25 N25           -3.7243     8.5488     0.0252 N.1     
  26 H26           -0.8527    -0.5533     0.1476 H       
  27 H27            1.2885    -1.7666     0.1938 H       
  28 H28            3.4182    -0.4880     0.2152 H       
  29 H29            3.3191     1.9937     0.1891 H       
  30 H30           -2.2814     5.3924     0.0737 H       
  31 H31            2.0050     5.6208     0.1313 H       
  32 H32            1.8846     8.0695     0.1039 H       
  33 H33           -1.1031     9.9692     0.4028 H       
  34 H34            2.5702    11.9390    -1.3901 H       
  35 H35           -1.5454    14.0852     0.1365 H       
  36 H36            2.3721    14.4125    -1.5361 H       
  37 H37            0.2749    15.4876    -0.7516 H       
@<TRIPOS>BOND
   1    1    2 ar
   2    1    6 ar
   3    2    3 ar
   4    2   26 1
   5    3    4 ar
   6    3   27 1
   7    4    5 ar
   8    4   28 1
   9    5    6 ar
  10    5   29 1
  11    6    7 1
  12    7    8 2
  13    8    9 1
  14    9   12 ar
  15    9   11 ar
  16   10   11 ar
  17   10   14 ar
  18   10   24 1
  19   11   30 1
  20   12   13 ar
  21   12   31 1
  22   13   14 ar
  23   13   32 1
  24   14   15 1
  25   15   16 am
  26   15   33 1
  27   16   17 2
  28   16   18 1
  29   18   19 ar
  30   18   20 ar
  31   19   22 ar
  32   19   34 1
  33   20   21 ar
  34   21   23 ar
  35   21   35 1
  36   22   23 ar
  37   22   36 1
  38   23   37 1
  39   24   25 3

#	End of record

