#	Name: ASD01840530
#	Creating user name:	WinNT
#	Creation time:	15. 06. 2019 19:37

#	Modifying user name:	WinNT
#	Modification time:	15. 06. 2019 19:37

#	Program:	/corina/corina34_cracker 3.40 0067  02.08.2006

@<TRIPOS>MOLECULE
ASD01840530
  45   48    0    0    0
SMALL
NO_CHARGES


@<TRIPOS>ATOM
   1 C1             2.5867    -0.4056     1.0165 C.3     
   2 C2             1.3109    -1.0602     0.5527 C.ar    
   3 C3             1.2619    -1.6942    -0.6596 C.ar    
   4 C4             0.0544    -2.2900    -1.0521 C.ar    
   5 C5            -0.3461    -3.0338    -2.2549 C.2     
   6 O6             0.3821    -3.2760    -3.1970 O.2     
   7 O7            -1.6336    -3.4082    -2.1622 O.3     
   8 C8            -2.1723    -2.9394    -0.8958 C.3     
   9 C9            -1.0480    -2.2150    -0.1963 C.ar    
  10 N10           -0.9594    -1.5968     0.9595 N.ar    
  11 C11            0.1728    -1.0298     1.3573 C.ar    
  12 N12            0.2226    -0.3944     2.5860 N.3     
  13 C13           -0.7121     0.7373     2.6316 C.3     
  14 C14           -0.5264     1.5015     3.9444 C.3     
  15 C15           -0.7833     0.5555     5.1207 C.3     
  16 C16            0.1702    -0.6386     5.0229 C.3     
  17 C17           -0.0357    -1.3408     3.6788 C.3     
  18 O18           -0.5559     1.2487     6.3495 O.3     
  19 C19           -1.2047     0.7836     7.4495 C.ar    
  20 C20           -1.9524    -0.3834     7.3721 C.ar    
  21 C21           -2.6145    -0.8619     8.4880 C.ar    
  22 C22           -2.5367    -0.1822     9.6859 C.ar    
  23 C23           -1.7869     0.9929     9.7737 C.ar    
  24 C24           -1.1148     1.4711     8.6482 C.ar    
  25 C25           -1.7037     1.7013    11.0154 C.1     
  26 N26           -1.6377     2.2632    12.0005 N.1     
  27 H27            3.1511    -1.1057     1.6325 H       
  28 H28            3.1841    -0.1201     0.1506 H       
  29 H29            2.3476     0.4823     1.6017 H       
  30 H30            2.1318    -1.7344    -1.2984 H       
  31 H31           -3.0039    -2.2573    -1.0726 H       
  32 H32           -2.5035    -3.7857    -0.2940 H       
  33 H33           -0.5160     1.4044     1.7922 H       
  34 H34           -1.7351     0.3661     2.5690 H       
  35 H35            0.4924     1.8847     4.0014 H       
  36 H36           -1.2311     2.3321     3.9849 H       
  37 H37           -1.8139     0.2024     5.0859 H       
  38 H38            1.2000    -0.2890     5.0968 H       
  39 H39           -0.0367    -1.3370     5.8337 H       
  40 H40           -1.0618    -1.7022     3.6112 H       
  41 H41            0.6518    -2.1830     3.5999 H       
  42 H42           -2.0176    -0.9196     6.4369 H       
  43 H43           -3.1945    -1.7705     8.4214 H       
  44 H44           -3.0555    -0.5583    10.5553 H       
  45 H45           -0.5298     2.3768     8.7107 H       
@<TRIPOS>BOND
   1    1    2 1
   2    1   27 1
   3    1   28 1
   4    1   29 1
   5    2   11 ar
   6    2    3 ar
   7    3    4 ar
   8    3   30 1
   9    4    9 ar
  10    4    5 1
  11    5    6 2
  12    5    7 1
  13    7    8 1
  14    8    9 1
  15    8   31 1
  16    8   32 1
  17    9   10 ar
  18   10   11 ar
  19   11   12 1
  20   12   17 1
  21   12   13 1
  22   13   14 1
  23   13   33 1
  24   13   34 1
  25   14   15 1
  26   14   35 1
  27   14   36 1
  28   15   16 1
  29   15   18 1
  30   15   37 1
  31   16   17 1
  32   16   38 1
  33   16   39 1
  34   17   40 1
  35   17   41 1
  36   18   19 1
  37   19   24 ar
  38   19   20 ar
  39   20   21 ar
  40   20   42 1
  41   21   22 ar
  42   21   43 1
  43   22   23 ar
  44   22   44 1
  45   23   24 ar
  46   23   25 1
  47   24   45 1
  48   25   26 3

#	End of record

