#	Name: ASD05720198
#	Creating user name:	WinNT
#	Creation time:	15. 06. 2019 21:02

#	Modifying user name:	WinNT
#	Modification time:	15. 06. 2019 21:02

#	Program:	/corina/corina34_cracker 3.40 0067  02.08.2006

@<TRIPOS>MOLECULE
ASD05720198
  27   28    0    0    0
SMALL
NO_CHARGES


@<TRIPOS>ATOM
   1 O1            -0.0161     1.3335     0.0094 O.3     
   2 C2             0.0021    -0.0041     0.0020 C.2     
   3 N3             1.2348    -0.5293    -0.0126 N.am    
   4 C4             2.2183     0.5645    -0.0161 C.3     
   5 C5             1.3508     1.8380    -0.0010 C.3     
   6 O6            -1.0070    -0.6809     0.0087 O.2     
   7 C7             2.4551     0.4835    -2.5307 C.2     
   8 C8             3.0621     0.5136    -1.2636 C.2     
   9 C9             4.4231     0.4968    -1.1748 C.2     
  10 C10            5.1861     0.4498    -2.3500 C.2     
  11 C11            4.5701     0.4217    -3.5549 C.2     
  12 N12            3.2153     0.4385    -3.6413 N.am    
  13 O13            1.2381     0.4930    -2.6245 O.2     
  14 C14            2.5732     0.4068    -4.9577 C.3     
  15 C15            2.3699     1.8374    -5.4605 C.3     
  16 H16            1.4444    -1.4764    -0.0197 H       
  17 H17            2.8457     0.5181     0.8740 H       
  18 H18            1.5314     2.4340    -0.8956 H       
  19 H19            1.5485     2.4243     0.8964 H       
  20 H20            4.9076     0.5198    -0.2098 H       
  21 H21            6.2646     0.4364    -2.2940 H       
  22 H22            5.1626     0.3855    -4.4571 H       
  23 H23            3.2066    -0.1378    -5.6579 H       
  24 H24            1.6069    -0.0913    -4.8787 H       
  25 H25            1.7365     2.3821    -4.7603 H       
  26 H26            3.3362     2.3356    -5.5395 H       
  27 H27            1.8921     1.8139    -6.4399 H       
@<TRIPOS>BOND
   1    1    2 1
   2    1    5 1
   3    2    3 am
   4    2    6 2
   5    3    4 1
   6    3   16 1
   7    4    5 1
   8    4    8 1
   9    4   17 1
  10    5   18 1
  11    5   19 1
  12    7    8 1
  13    7   12 am
  14    7   13 2
  15    8    9 2
  16    9   10 1
  17    9   20 1
  18   10   11 2
  19   10   21 1
  20   11   12 1
  21   11   22 1
  22   12   14 1
  23   14   15 1
  24   14   23 1
  25   14   24 1
  26   15   25 1
  27   15   26 1
  28   15   27 1

#	End of record

