#	Name: ASD00451015
#	Creating user name:	WinNT
#	Creation time:	15. 06. 2019 18:36

#	Modifying user name:	WinNT
#	Modification time:	15. 06. 2019 18:36

#	Program:	/corina/corina34_cracker 3.40 0067  02.08.2006

@<TRIPOS>MOLECULE
ASD00451015
  51   54    0    0    0
SMALL
NO_CHARGES


@<TRIPOS>ATOM
   1 C1             0.0049     1.4676    -0.1697 C.ar    
   2 C2             0.0291     0.0813    -0.2386 C.ar    
   3 N3             1.2058     2.1893    -0.1475 N.am    
   4 C4            -1.2099     2.1392    -0.1285 C.ar    
   5 C5            -1.1548    -0.6295    -0.2603 C.ar    
   6 C6             2.2869     1.6797     0.4753 C.2     
   7 C7            -2.3928     1.4279    -0.1560 C.ar    
   8 C8            -2.3680     0.0416    -0.2133 C.ar    
   9 O9             2.1945     0.6419     1.1021 O.2     
  10 N10            3.4705     2.3204     0.4034 N.am    
  11 O11           -3.5331    -0.6584    -0.2409 O.3     
  12 C12            4.5611     1.8620     1.1518 C.ar    
  13 C13           -3.9216    -1.2947     0.8941 C.ar    
  14 C14            5.8562     2.1160     0.7207 C.ar    
  15 C15            4.3495     1.1574     2.3297 C.ar    
  16 C16           -5.1489    -1.9492     0.9637 C.ar    
  17 C17           -3.1011    -1.3162     2.0197 C.ar    
  18 C18            6.9307     1.6626     1.4610 C.ar    
  19 C19            5.4271     0.7063     3.0661 C.ar    
  20 N20           -6.1933    -2.1344     0.0602 N.am    
  21 C21           -5.5143    -2.5922     2.1467 C.ar    
  22 C22           -3.5307    -1.9734     3.1551 C.ar    
  23 C23            6.7171     0.9555     2.6309 C.ar    
  24 C24           -7.1514    -2.8589     0.6695 C.2     
  25 N25           -6.7706    -3.1439     1.9286 N.am    
  26 N26           -4.7020    -2.5801     3.1928 N.ar    
  27 Cl27           8.0696     0.3866     3.5587 Cl      
  28 O28           -8.2039    -3.1979     0.1615 O.2     
  29 H29            1.2590     3.0557    -0.5805 H       
  30 H30            3.5666     3.0990    -0.1670 H       
  31 H31           -6.2251    -1.7993    -0.8496 H       
  32 H32           -7.2846    -3.6542     2.5738 H       
  33 S33           -1.2415     3.8987    -0.0405 S.o2    
  34 O34           -0.3894     4.3178    -1.0976 O.2     
  35 O35           -2.6246     4.2248    -0.0412 O.2     
  36 C36           -0.4973     4.2849     1.5682 C.3     
  37 C37            8.3367     1.9380     0.9937 C.3     
  38 F38            8.2971     2.6619    -0.2028 F       
  39 F39            9.0142     2.6812     1.9663 F       
  40 F40            9.0040     0.7264     0.7839 F       
  41 H41            0.9736    -0.4412    -0.2755 H       
  42 H42           -1.1361    -1.7080    -0.3142 H       
  43 H43           -3.3377     1.9501    -0.1240 H       
  44 H44            6.0234     2.6673    -0.1928 H       
  45 H45            3.3431     0.9627     2.6696 H       
  46 H46           -2.1397    -0.8245     2.0042 H       
  47 H47            5.2631     0.1583     3.9821 H       
  48 H48           -2.8962    -1.9917     4.0288 H       
  49 H49            0.5196     3.8940     1.6013 H       
  50 H50           -0.4760     5.3656     1.7086 H       
  51 H51           -1.0885     3.8271     2.3613 H       
@<TRIPOS>BOND
   1    1    2 ar
   2    1    3 1
   3    1    4 ar
   4    2    5 ar
   5    2   41 1
   6    3   29 1
   7    3    6 am
   8    4   33 1
   9    4    7 ar
  10    5    8 ar
  11    5   42 1
  12    6    9 2
  13    6   10 am
  14    7    8 ar
  15    7   43 1
  16    8   11 1
  17   10   12 1
  18   10   30 1
  19   11   13 1
  20   12   14 ar
  21   12   15 ar
  22   13   16 ar
  23   13   17 ar
  24   14   18 ar
  25   14   44 1
  26   15   19 ar
  27   15   45 1
  28   16   20 1
  29   16   21 ar
  30   17   22 ar
  31   17   46 1
  32   18   23 ar
  33   18   37 1
  34   19   23 ar
  35   19   47 1
  36   20   31 1
  37   20   24 am
  38   21   26 ar
  39   21   25 1
  40   22   26 ar
  41   22   48 1
  42   23   27 1
  43   24   25 am
  44   24   28 2
  45   25   32 1
  46   33   34 2
  47   33   35 2
  48   33   36 1
  49   36   49 1
  50   36   50 1
  51   36   51 1
  52   37   38 1
  53   37   39 1
  54   37   40 1

#	End of record

