#	Name: ASD09890017
#	Creating user name:	WinNT
#	Creation time:	15. 06. 2019 21:24

#	Modifying user name:	WinNT
#	Modification time:	15. 06. 2019 21:24

#	Program:	/corina/corina34_cracker 3.40 0067  02.08.2006

@<TRIPOS>MOLECULE
ASD09890017
  33   35    0    0    0
SMALL
NO_CHARGES


@<TRIPOS>ATOM
   1 C1            -0.4507     1.8171    -1.5277 C.ar    
   2 C2            -0.5752     0.4698    -1.8728 C.ar    
   3 C3             1.7204     0.0913    -1.2164 C.ar    
   4 C4             1.8337     1.4210    -0.8798 C.ar    
   5 C5             0.7515     2.2867    -1.0331 C.ar    
   6 C6            -1.6676    -0.3449    -2.4106 C.2     
   7 C7            -1.1973    -1.5953    -2.5419 C.2     
   8 N8             0.1069    -1.6487    -2.1323 N.pl3   
   9 C9             0.5186    -0.4003    -1.7163 C.ar    
  10 C10           -1.9890    -2.7670    -3.0629 C.3     
  11 N11            0.8832     3.6368    -0.6850 N.am    
  12 C12           -0.1415     4.2837    -0.0952 C.2     
  13 C13            0.0188     5.6895     0.3289 C.ar    
  14 O14           -1.1978     3.7102     0.0879 O.2     
  15 C15            0.2619     8.2422     1.1219 C.ar    
  16 N16           -0.8453     7.5923     1.4314 N.ar    
  17 C17           -1.0000     6.3282     1.0553 C.ar    
  18 N18            1.1305     6.3552     0.0296 N.ar    
  19 C19            1.2701     7.6092     0.4094 C.ar    
  20 N20           -2.1580     5.6442     1.3767 N.pl3   
  21 H21           -1.2872     2.4890    -1.6508 H       
  22 H22            2.5651    -0.5705    -1.0938 H       
  23 H23            2.7689     1.7970    -0.4920 H       
  24 H24           -2.6630    -0.0041    -2.6546 H       
  25 H25            0.6596    -2.4458    -2.1346 H       
  26 H26           -1.8712    -2.8330    -4.1445 H       
  27 H27           -1.6257    -3.6851    -2.6011 H       
  28 H28           -3.0428    -2.6304    -2.8198 H       
  29 H29            1.7120     4.1064    -0.8685 H       
  30 H30            0.3851     9.2703     1.4291 H       
  31 H31            2.1720     8.1486     0.1603 H       
  32 H32           -2.9641     6.1343     1.6022 H       
  33 H33           -2.1642     4.6742     1.3766 H       
@<TRIPOS>BOND
   1    1    2 ar
   2    1    5 ar
   3    1   21 1
   4    2    9 ar
   5    2    6 1
   6    3    4 ar
   7    3    9 ar
   8    3   22 1
   9    4    5 ar
  10    4   23 1
  11    5   11 1
  12    6    7 2
  13    6   24 1
  14    7    8 1
  15    7   10 1
  16    8    9 1
  17    8   25 1
  18   10   26 1
  19   10   27 1
  20   10   28 1
  21   11   12 am
  22   11   29 1
  23   12   13 1
  24   12   14 2
  25   13   18 ar
  26   13   17 ar
  27   15   16 ar
  28   15   19 ar
  29   15   30 1
  30   16   17 ar
  31   17   20 1
  32   18   19 ar
  33   19   31 1
  34   20   32 1
  35   20   33 1

#	End of record

