#	Name: ASD01908152
#	Creating user name:	WinNT
#	Creation time:	15. 06. 2019 19:54

#	Modifying user name:	WinNT
#	Modification time:	15. 06. 2019 19:54

#	Program:	/corina/corina34_cracker 3.40 0067  02.08.2006

@<TRIPOS>MOLECULE
ASD01908152
  24   25    0    0    0
SMALL
NO_CHARGES


@<TRIPOS>ATOM
   1 C1            -0.0184     1.5028     0.0103 C.2     
   2 C2            -0.0175     0.0172     0.2636 C.3     
   3 N3             3.3969     2.6745    -0.2563 N.pl3   
   4 N4             2.6895     3.8803    -0.3126 N.2     
   5 C5             1.4133     3.6282    -0.2276 C.2     
   6 C6             1.2514     2.2267    -0.1114 C.2     
   7 C7             2.5182     1.6686    -0.1337 C.2     
   8 C8             0.1044    -0.7159    -1.0474 C.ar    
   9 C9            -0.9349    -1.5103    -1.4943 C.ar    
  10 C10           -0.8231    -2.1828    -2.6969 C.ar    
  11 C11            0.3278    -2.0604    -3.4528 C.ar    
  12 C12            1.3667    -1.2653    -3.0063 C.ar    
  13 C13            1.2532    -0.5894    -1.8058 C.ar    
  14 Br14           1.5030    -0.4496     1.4192 Br      
  15 O15           -1.0693     2.0990    -0.0979 O.2     
  16 H16           -0.9479    -0.2682     0.7544 H       
  17 H17            4.3613     2.5813    -0.3024 H       
  18 H18            0.6191     4.3599    -0.2430 H       
  19 H19            2.7552     0.6171    -0.0653 H       
  20 H20           -1.8340    -1.6059    -0.9037 H       
  21 H21           -1.6347    -2.8040    -3.0456 H       
  22 H22            0.4154    -2.5864    -4.3920 H       
  23 H23            2.2660    -1.1700    -3.5968 H       
  24 H24            2.0634     0.0348    -1.4588 H       
@<TRIPOS>BOND
   1    1    2 1
   2    1    6 1
   3    1   15 2
   4    2    8 1
   5    2   14 1
   6    2   16 1
   7    3    4 1
   8    3    7 1
   9    3   17 1
  10    4    5 2
  11    5    6 1
  12    5   18 1
  13    6    7 2
  14    7   19 1
  15    8    9 ar
  16    8   13 ar
  17    9   10 ar
  18    9   20 1
  19   10   11 ar
  20   10   21 1
  21   11   12 ar
  22   11   22 1
  23   12   13 ar
  24   12   23 1
  25   13   24 1

#	End of record

