#	Name: ASD03082284
#	Creating user name:	WinNT
#	Creation time:	15. 06. 2019 20:27

#	Modifying user name:	WinNT
#	Modification time:	15. 06. 2019 20:27

#	Program:	/corina/corina34_cracker 3.40 0067  02.08.2006

@<TRIPOS>MOLECULE
ASD03082284
  40   42    0    0    0
SMALL
NO_CHARGES


@<TRIPOS>ATOM
   1 N1             0.2241     1.8062    -0.2066 N.pl3   
   2 N2             0.0193     0.4180    -0.2592 N.2     
   3 C3             1.1745    -0.1497    -0.0005 C.2     
   4 N4             2.0884     0.7995     0.2106 N.2     
   5 C5             1.5307     1.9880     0.0898 C.2     
   6 N6             1.4089    -1.5253     0.0468 N.pl3   
   7 C7             0.3415    -2.4212    -0.0738 C.ar    
   8 C8             0.5627    -3.7062    -0.5523 C.ar    
   9 C9            -0.4927    -4.5891    -0.6706 C.ar    
  10 C10           -1.7707    -4.1940    -0.3125 C.ar    
  11 C11           -1.9936    -2.9134     0.1648 C.ar    
  12 C12           -0.9402    -2.0290     0.2901 C.ar    
  13 C13            2.2136     3.2900     0.2502 C.ar    
  14 C14           -0.7779     2.8505    -0.4340 C.3     
  15 C15            1.4756     4.4531     0.5044 C.ar    
  16 C16            2.1583     5.6453     0.6470 C.ar    
  17 C17            3.5440     5.6524     0.5346 C.ar    
  18 N18            4.2128     4.5360     0.2938 N.ar    
  19 C19            3.6019     3.3770     0.1563 C.ar    
  20 O20            4.2199     6.8199     0.6732 O.3     
  21 C21            5.6423     6.7649     0.5474 C.3     
  22 O22           -1.4164     3.1754     0.8024 O.3     
  23 F23           -2.8017    -5.0592    -0.4294 F       
  24 C24            6.2252     8.1673     0.7327 C.3     
  25 H25            2.3120    -1.8596     0.1632 H       
  26 H26            1.5592    -4.0146    -0.8320 H       
  27 H27           -0.3212    -5.5882    -1.0429 H       
  28 H28           -2.9911    -2.6074     0.4434 H       
  29 H29           -1.1137    -1.0318     0.6669 H       
  30 H30           -0.2916     3.7392    -0.8363 H       
  31 H31           -1.5226     2.4910    -1.1441 H       
  32 H32            0.3993     4.4186     0.5866 H       
  33 H33            1.6217     6.5617     0.8433 H       
  34 H34            4.1815     2.4869    -0.0393 H       
  35 H35            6.0489     6.0990     1.3086 H       
  36 H36            5.9054     6.3898    -0.4416 H       
  37 H37           -2.0934     3.8617     0.7270 H       
  38 H38            7.3102     8.1254     0.6368 H       
  39 H39            5.8187     8.8333    -0.0284 H       
  40 H40            5.9622     8.5424     1.7217 H       
@<TRIPOS>BOND
   1    1    2 1
   2    1    5 1
   3    1   14 1
   4    2    3 2
   5    3    4 1
   6    3    6 1
   7    4    5 2
   8    5   13 1
   9    6    7 1
  10    6   25 1
  11    7    8 ar
  12    7   12 ar
  13    8    9 ar
  14    8   26 1
  15    9   10 ar
  16    9   27 1
  17   10   11 ar
  18   10   23 1
  19   11   12 ar
  20   11   28 1
  21   12   29 1
  22   13   15 ar
  23   13   19 ar
  24   14   22 1
  25   14   30 1
  26   14   31 1
  27   15   16 ar
  28   15   32 1
  29   16   17 ar
  30   16   33 1
  31   17   18 ar
  32   17   20 1
  33   18   19 ar
  34   19   34 1
  35   20   21 1
  36   21   24 1
  37   21   35 1
  38   21   36 1
  39   22   37 1
  40   24   38 1
  41   24   39 1
  42   24   40 1

#	End of record

