#	Name: ASD01811464
#	Creating user name:	WinNT
#	Creation time:	15. 06. 2019 19:26

#	Modifying user name:	WinNT
#	Modification time:	15. 06. 2019 19:26

#	Program:	/corina/corina34_cracker 3.40 0067  02.08.2006

@<TRIPOS>MOLECULE
ASD01811464
  36   38    0    0    0
SMALL
NO_CHARGES


@<TRIPOS>ATOM
   1 C1             0.1311     1.4704     0.0544 C.2     
   2 C2             0.0742    -0.0057     0.0236 C.ar    
   3 C3             1.2522    -0.7510     0.0424 C.ar    
   4 C4             1.1893    -2.1417     0.0136 C.ar    
   5 C5            -0.0515    -2.7809    -0.0340 C.ar    
   6 C6            -1.2147    -2.0373    -0.0529 C.ar    
   7 C7            -1.1604    -0.6580    -0.0187 C.ar    
   8 O8             1.2053     2.0360     0.0962 O.2     
   9 O9            -1.0080     2.1890     0.0305 O.3     
  10 C10            2.4343    -2.9405     0.0328 C.2     
  11 N11            3.7056    -2.4418    -0.0395 N.pl3   
  12 C12            4.5484    -3.5059     0.0118 C.2     
  13 C13            3.7837    -4.6211     0.1114 C.2     
  14 N14            2.5065    -4.2529     0.1282 N.2     
  15 C15            6.0545    -3.5348    -0.0263 C.3     
  16 C16            4.3735    -6.0089     0.1881 C.3     
  17 C17            5.8387    -5.9200    -0.2629 C.3     
  18 O18            6.4836    -4.8333     0.4068 O.3     
  19 C19           -0.1210    -4.2860    -0.0652 C.3     
  20 C20           -0.8762     3.6347     0.0633 C.3     
  21 H21            2.2093    -0.2519     0.0789 H       
  22 H22           -2.1715    -2.5368    -0.0904 H       
  23 H23           -2.0741    -0.0822    -0.0289 H       
  24 H24            3.9572    -1.5079    -0.1135 H       
  25 H25            6.4009    -3.3526    -1.0436 H       
  26 H26            6.4547    -2.7725     0.6421 H       
  27 H27            4.3243    -6.3750     1.2137 H       
  28 H28            3.8242    -6.6807    -0.4714 H       
  29 H29            6.3504    -6.8511    -0.0191 H       
  30 H30            5.8774    -5.7568    -1.3399 H       
  31 H31           -0.0529    -4.6741     0.9511 H       
  32 H32           -1.0662    -4.5969    -0.5103 H       
  33 H33            0.7058    -4.6757    -0.6591 H       
  34 H34           -0.3614     3.9320     0.9769 H       
  35 H35           -0.3021     3.9669    -0.8017 H       
  36 H36           -1.8661     4.0904     0.0392 H       
@<TRIPOS>BOND
   1    1    2 1
   2    1    8 2
   3    1    9 1
   4    2    3 ar
   5    2    7 ar
   6    3    4 ar
   7    3   21 1
   8    4    5 ar
   9    4   10 1
  10    5    6 ar
  11    5   19 1
  12    6    7 ar
  13    6   22 1
  14    7   23 1
  15    9   20 1
  16   10   11 1
  17   10   14 2
  18   11   12 1
  19   11   24 1
  20   12   13 2
  21   12   15 1
  22   13   14 1
  23   13   16 1
  24   15   18 1
  25   15   25 1
  26   15   26 1
  27   16   17 1
  28   16   27 1
  29   16   28 1
  30   17   18 1
  31   17   29 1
  32   17   30 1
  33   19   31 1
  34   19   32 1
  35   19   33 1
  36   20   34 1
  37   20   35 1
  38   20   36 1

#	End of record

