#	Name: ASD08150052
#	Creating user name:	WinNT
#	Creation time:	15. 06. 2019 21:15

#	Modifying user name:	WinNT
#	Modification time:	15. 06. 2019 21:15

#	Program:	/corina/corina34_cracker 3.40 0067  02.08.2006

@<TRIPOS>MOLECULE
ASD08150052
  53   57    0    0    0
SMALL
NO_CHARGES


@<TRIPOS>ATOM
   1 O1            -0.0161     1.3330     0.0094 O.3     
   2 C2             0.0021    -0.0041     0.0020 C.2     
   3 N3             1.2341    -0.5298    -0.0120 N.am    
   4 C4             2.2200     0.5609    -0.0146 C.3     
   5 C5             1.3491     1.8401    -0.0009 C.3     
   6 C6             1.6139     2.5619    -1.3374 C.3     
   7 C7             3.0079     2.0518    -1.7783 C.3     
   8 C8             2.9743     0.5615    -1.3592 C.3     
   9 O9            -1.0071    -0.6806     0.0082 O.2     
  10 O10            1.6380     3.9776    -1.1444 O.3     
  11 C11            3.0877    -3.5927     0.0550 C.ar    
  12 N12            2.1488    -4.5210    -0.0396 N.ar    
  13 C13            0.8624    -4.1832    -0.1297 C.ar    
  14 C14            0.5149    -2.8328    -0.1231 C.ar    
  15 C15            1.5325    -1.8881    -0.0221 C.ar    
  16 N16            2.7933    -2.3012     0.0642 N.ar    
  17 C17           -2.0754    -7.1181    -0.4270 C.ar    
  18 N18           -0.8045    -7.4854    -0.3392 N.ar    
  19 C19            0.1563    -6.5844    -0.2437 C.ar    
  20 C20           -0.1835    -5.2281    -0.2359 C.ar    
  21 C21           -1.5347    -4.8826    -0.3302 C.ar    
  22 N22           -2.4371    -5.8428    -0.4229 N.ar    
  23 C23            1.5979    -7.0118    -0.1439 C.3     
  24 F24            1.6835    -8.4008    -0.2867 F       
  25 F25            2.3391    -6.3924    -1.1559 F       
  26 F26            2.1096    -6.6389     1.1037 F       
  27 O27            6.6128    -5.2559     1.3454 O.3     
  28 C28            6.0146    -5.8319     0.1811 C.3     
  29 C29            4.5336    -5.4472     0.1314 C.3     
  30 N30            4.4122    -3.9822     0.1526 N.3     
  31 C31            5.0375    -3.4251     1.3610 C.3     
  32 C32            6.5134    -3.8302     1.3983 C.3     
  33 N33           -3.0503    -8.0922    -0.5313 N.pl3   
  34 H34            2.8886     0.5101     0.8447 H       
  35 H35            1.5576     2.4683     0.8651 H       
  36 H36            0.8580     2.2896    -2.0739 H       
  37 H37            3.1307     2.1471    -2.8572 H       
  38 H38            3.7989     2.5840    -1.2499 H       
  39 H39            3.9868     0.1795    -1.2283 H       
  40 H40            2.4353    -0.0304    -2.0989 H       
  41 H41            1.8010     4.4821    -1.9531 H       
  42 H42           -0.5185    -2.5273    -0.1950 H       
  43 H43           -1.8364    -3.8456    -0.3278 H       
  44 H44            6.5181    -5.4572    -0.7100 H       
  45 H45            6.1074    -6.9172     0.2232 H       
  46 H46            4.0869    -5.8361    -0.7836 H       
  47 H47            4.0191    -5.8675     0.9955 H       
  48 H48            4.9587    -2.3381     1.3435 H       
  49 H49            4.5311    -3.8132     2.2448 H       
  50 H50            6.9671    -3.4677     2.3208 H       
  51 H51            7.0315    -3.3973     0.5426 H       
  52 H52           -2.8005    -9.0294    -0.5396 H       
  53 H53           -3.9843    -7.8386    -0.5963 H       
@<TRIPOS>BOND
   1    1    2 1
   2    1    5 1
   3    2    3 am
   4    2    9 2
   5    3    4 1
   6    3   15 1
   7    4    5 1
   8    4    8 1
   9    4   34 1
  10    5    6 1
  11    5   35 1
  12    6    7 1
  13    6   10 1
  14    6   36 1
  15    7    8 1
  16    7   37 1
  17    7   38 1
  18    8   39 1
  19    8   40 1
  20   10   41 1
  21   11   12 ar
  22   11   16 ar
  23   11   30 1
  24   12   13 ar
  25   13   14 ar
  26   13   20 1
  27   14   15 ar
  28   14   42 1
  29   15   16 ar
  30   17   18 ar
  31   17   22 ar
  32   17   33 1
  33   18   19 ar
  34   19   20 ar
  35   19   23 1
  36   20   21 ar
  37   21   22 ar
  38   21   43 1
  39   23   24 1
  40   23   25 1
  41   23   26 1
  42   27   28 1
  43   27   32 1
  44   28   29 1
  45   28   44 1
  46   28   45 1
  47   29   30 1
  48   29   46 1
  49   29   47 1
  50   30   31 1
  51   31   32 1
  52   31   48 1
  53   31   49 1
  54   32   50 1
  55   32   51 1
  56   33   52 1
  57   33   53 1

#	End of record

