#	Name: ASD00844902
#	Creating user name:	WinNT
#	Creation time:	15. 06. 2019 18:51

#	Modifying user name:	WinNT
#	Modification time:	15. 06. 2019 18:51

#	Program:	/corina/corina34_cracker 3.40 0067  02.08.2006

@<TRIPOS>MOLECULE
ASD00844902
  91   96    0    0    0
SMALL
NO_CHARGES


@<TRIPOS>ATOM
   1 F1             5.6618    -2.3386    -1.9051 F       
   2 C2             0.8053     1.2053    -0.3137 C.ar    
   3 C3             1.0100    -0.1345    -0.6086 C.ar    
   4 C4             0.8359    -1.0942     0.3783 C.ar    
   5 C5             0.4594    -0.7133     1.6515 C.ar    
   6 C6             0.2555     0.6231     1.9428 C.ar    
   7 C7             0.4287     1.5811     0.9614 C.ar    
   8 C8             1.0569    -2.5507     0.0613 C.3     
   9 C9             0.6812    -3.4142     1.2464 C.2     
  10 C10            0.2516    -2.9570    -1.1745 C.3     
  11 C11           -1.1995    -2.6081    -0.9655 C.2     
  12 N12           -2.1189    -2.9726    -1.8811 N.am    
  13 O13           -1.5400    -1.9993     0.0267 O.2     
  14 C14           -3.5209    -2.5467    -1.7540 C.3     
  15 C15           -3.9610    -1.9185    -3.0806 C.3     
  16 N16           -3.6946    -2.8596    -4.1766 N.3     
  17 C17           -2.2567    -3.1290    -4.3101 C.3     
  18 C18           -1.7456    -3.8017    -3.0371 C.3     
  19 N19           -4.2520    -2.3730    -5.4283 N.3     
  20 C20           -3.9855    -3.3146    -6.5247 C.3     
  21 C21           -4.6547    -2.8064    -7.8039 C.3     
  22 N22           -4.1386    -1.4685    -8.1254 N.3     
  23 C23           -4.4051    -0.5269    -7.0290 C.3     
  24 C24           -3.7359    -1.0351    -5.7497 C.3     
  25 C25           -4.7017    -0.9769    -9.3900 C.3     
  26 O26           -0.4161    -3.4992     1.7561 O.2     
  27 N27            1.7905    -4.0691     1.6277 N.am    
  28 C28            2.5283    -2.8301    -0.1466 C.ar    
  29 C29            2.8931    -3.7496     0.8315 C.ar    
  30 C30            3.4475    -2.3588    -1.0578 C.ar    
  31 C31            4.7588    -2.7989    -1.0118 C.ar    
  32 C32            5.1437    -3.7232    -0.0353 C.ar    
  33 C33            4.2080    -4.1967     0.8841 C.ar    
  34 C34            1.4754    -6.7312     2.2511 C.ar    
  35 C35            0.2210    -6.9928     1.7202 C.ar    
  36 C36            2.4372    -7.7230     2.2692 C.ar    
  37 C37            2.1502    -8.9751     1.7583 C.ar    
  38 C38            0.9003    -9.2384     1.2284 C.ar    
  39 C39           -0.0647    -8.2504     1.2084 C.ar    
  40 H40            0.6785   -10.2174     0.8298 H       
  41 O41           -0.7269    -6.0190     1.7017 O.3     
  42 C42           -1.9959    -6.3595     1.1397 C.3     
  43 C43           -2.9252    -5.1458     1.2062 C.3     
  44 S44            1.8445    -5.1333     2.8954 S.o2    
  45 O45            3.1982    -5.1768     3.3253 O.2     
  46 O46            0.7668    -4.7884     3.7549 O.2     
  47 O47            1.3800    -0.5068    -1.8622 O.3     
  48 C48            1.4544     0.5236    -2.8495 C.3     
  49 C49            1.9739    -0.0649    -4.1627 C.3     
  50 F50            3.2058    -0.6892    -3.9389 F       
  51 F51            1.0570    -1.0033    -4.6482 F       
  52 C52            6.4984    -4.1842     0.0200 C.1     
  53 N53            7.5730    -4.5498     0.0638 N.1     
  54 H54            0.9445     1.9545    -1.0790 H       
  55 H55            0.3237    -1.4599     2.4201 H       
  56 H56           -0.0396     0.9188     2.9388 H       
  57 H57            0.2689     2.6242     1.1914 H       
  58 H58            0.6312    -2.4248    -2.0467 H       
  59 H59            0.3477    -4.0310    -1.3339 H       
  60 H60           -4.1474    -3.4107    -1.5324 H       
  61 H61           -3.6093    -1.8119    -0.9538 H       
  62 H62           -5.0276    -1.6973    -3.0422 H       
  63 H63           -3.4039    -0.9968    -3.2491 H       
  64 H64           -2.0873    -3.7858    -5.1633 H       
  65 H65           -1.7234    -2.1905    -4.4614 H       
  66 H66           -0.6610    -3.8993    -3.0847 H       
  67 H67           -2.2005    -4.7870    -2.9356 H       
  68 H68           -2.9100    -3.3930    -6.6834 H       
  69 H69           -4.3880    -4.2946    -6.2684 H       
  70 H70           -4.4341    -3.4882    -8.6253 H       
  71 H71           -5.7330    -2.7539    -7.6540 H       
  72 H72           -4.0026     0.4531    -7.2853 H       
  73 H73           -5.4806    -0.4485    -6.8703 H       
  74 H74           -3.9565    -0.3533    -4.9284 H       
  75 H75           -2.6576    -1.0876    -5.8996 H       
  76 H76           -5.7872    -0.9222    -9.3075 H       
  77 H77           -4.3033     0.0149    -9.6039 H       
  78 H78           -4.4325    -1.6584   -10.1969 H       
  79 H79            3.1443    -1.6451    -1.8096 H       
  80 H80            4.5056    -4.9105     1.6380 H       
  81 H81            3.4141    -7.5198     2.6825 H       
  82 H82            2.9035    -9.7488     1.7727 H       
  83 H83           -1.0409    -8.4567     0.7951 H       
  84 H84           -1.8642    -6.6598     0.1002 H       
  85 H85           -2.4335    -7.1835     1.7033 H       
  86 H86           -2.4876    -4.3219     0.6426 H       
  87 H87           -3.8931    -5.4055     0.7776 H       
  88 H88           -3.0569    -4.8455     2.2457 H       
  89 H89            0.4627     0.9471    -3.0083 H       
  90 H90            2.1329     1.3055    -2.5082 H       
  91 H91            2.0988     0.7333    -4.8944 H       
@<TRIPOS>BOND
   1    1   31 1
   2    2    3 ar
   3    2    7 ar
   4    2   54 1
   5    3    4 ar
   6    3   47 1
   7    4    5 ar
   8    4    8 1
   9    5    6 ar
  10    5   55 1
  11    6    7 ar
  12    6   56 1
  13    7   57 1
  14    8    9 1
  15    8   10 1
  16    8   28 1
  17    9   26 2
  18    9   27 am
  19   10   11 1
  20   10   58 1
  21   10   59 1
  22   11   12 am
  23   11   13 2
  24   12   14 1
  25   12   18 1
  26   14   15 1
  27   14   60 1
  28   14   61 1
  29   15   16 1
  30   15   62 1
  31   15   63 1
  32   16   17 1
  33   16   19 1
  34   17   18 1
  35   17   64 1
  36   17   65 1
  37   18   66 1
  38   18   67 1
  39   19   20 1
  40   19   24 1
  41   20   21 1
  42   20   68 1
  43   20   69 1
  44   21   22 1
  45   21   70 1
  46   21   71 1
  47   22   23 1
  48   22   25 1
  49   23   24 1
  50   23   72 1
  51   23   73 1
  52   24   74 1
  53   24   75 1
  54   25   76 1
  55   25   77 1
  56   25   78 1
  57   27   44 am
  58   27   29 1
  59   28   29 ar
  60   28   30 ar
  61   29   33 ar
  62   30   31 ar
  63   30   79 1
  64   31   32 ar
  65   32   33 ar
  66   32   52 1
  67   33   80 1
  68   34   35 ar
  69   34   36 ar
  70   34   44 1
  71   35   41 1
  72   35   39 ar
  73   36   37 ar
  74   36   81 1
  75   37   38 ar
  76   37   82 1
  77   38   39 ar
  78   38   40 1
  79   39   83 1
  80   41   42 1
  81   42   43 1
  82   42   84 1
  83   42   85 1
  84   43   86 1
  85   43   87 1
  86   43   88 1
  87   44   45 2
  88   44   46 2
  89   47   48 1
  90   48   49 1
  91   48   89 1
  92   48   90 1
  93   49   50 1
  94   49   51 1
  95   49   91 1
  96   52   53 3

#	End of record

