#	Name: ASD01940461
#	Creating user name:	WinNT
#	Creation time:	15. 06. 2019 20:12

#	Modifying user name:	WinNT
#	Modification time:	15. 06. 2019 20:12

#	Program:	/corina/corina34_cracker 3.40 0067  02.08.2006

@<TRIPOS>MOLECULE
ASD01940461
  49   52    0    0    0
SMALL
NO_CHARGES


@<TRIPOS>ATOM
   1 N1             1.1125     2.8102    -1.9601 N.am    
   2 N2             1.3326     1.7692    -2.8698 N.2     
   3 C3             2.1899     0.9254    -2.3727 C.2     
   4 C4             2.5793     1.3812    -1.0910 C.ar    
   5 C5             3.4605     0.8843    -0.1139 C.ar    
   6 C6             3.6270     1.5937     1.0815 C.ar    
   7 C7             2.9177     2.7877     1.2953 C.ar    
   8 C8             2.0655     3.2673     0.3504 C.ar    
   9 C9             1.8817     2.5789    -0.8523 C.ar    
  10 C10            4.5439     1.0890     2.1136 C.2     
  11 O11            5.0818     0.0080     1.9728 O.2     
  12 O12            4.7883     1.8250     3.2164 O.3     
  13 S13            0.1015     4.1018    -2.1880 S.o2    
  14 O14            0.5762     5.1378    -1.3391 O.2     
  15 O15           -0.0444     4.2541    -3.5933 O.2     
  16 C16           -3.9685     2.9140    -0.6019 C.ar    
  17 C17           -1.4827     3.6395    -1.5706 C.ar    
  18 C18           -3.0498     3.5186     0.2356 C.ar    
  19 C19           -3.6443     2.6721    -1.9238 C.ar    
  20 C20           -1.8069     3.8813    -0.2488 C.ar    
  21 C21           -2.4014     3.0348    -2.4081 C.ar    
  22 C22           -5.3211     2.5129    -0.0723 C.3     
  23 N23            4.1548    -0.2928    -0.3315 N.pl3   
  24 C24            3.5378    -1.5242    -0.0870 C.ar    
  25 C25            4.2718    -2.7025    -0.1801 C.ar    
  26 C26            3.6583    -3.9173     0.0628 C.ar    
  27 C27            2.3164    -3.9610     0.3979 C.ar    
  28 C28            1.5852    -2.7910     0.4909 C.ar    
  29 C29            2.1933    -1.5729     0.2546 C.ar    
  30 I30            1.3903    -5.8041     0.7645 I       
  31 F31            5.5817    -2.6596    -0.5077 F       
  32 C32            5.6109     1.2160     4.2463 C.3     
  33 H33            2.5447     0.0278    -2.8573 H       
  34 H34            3.0504     3.3300     2.2199 H       
  35 H35            1.5271     4.1861     0.5302 H       
  36 H36           -3.3032     3.7079     1.2682 H       
  37 H37           -4.3619     2.1995    -2.5780 H       
  38 H38           -1.0893     4.3540     0.4054 H       
  39 H39           -2.1483     2.8462    -3.4410 H       
  40 H40           -6.0210     3.3386    -0.2006 H       
  41 H41           -5.6821     1.6423    -0.6198 H       
  42 H42           -5.2386     2.2677     0.9866 H       
  43 H43            5.0693    -0.2640    -0.6536 H       
  44 H44            4.2266    -4.8328    -0.0094 H       
  45 H45            0.5381    -2.8290     0.7527 H       
  46 H46            1.6220    -0.6596     0.3320 H       
  47 H47            5.6589     1.8776     5.1113 H       
  48 H48            5.1751     0.2618     4.5425 H       
  49 H49            6.6162     1.0516     3.8584 H       
@<TRIPOS>BOND
   1    1    2 1
   2    1    9 1
   3    1   13 am
   4    2    3 2
   5    3    4 1
   6    3   33 1
   7    4    5 ar
   8    4    9 ar
   9    5    6 ar
  10    5   23 1
  11    6    7 ar
  12    6   10 1
  13    7    8 ar
  14    7   34 1
  15    8    9 ar
  16    8   35 1
  17   10   11 2
  18   10   12 1
  19   12   32 1
  20   13   14 2
  21   13   15 2
  22   13   17 1
  23   16   18 ar
  24   16   19 ar
  25   16   22 1
  26   17   20 ar
  27   17   21 ar
  28   18   20 ar
  29   18   36 1
  30   19   21 ar
  31   19   37 1
  32   20   38 1
  33   21   39 1
  34   22   40 1
  35   22   41 1
  36   22   42 1
  37   23   24 1
  38   23   43 1
  39   24   25 ar
  40   24   29 ar
  41   25   26 ar
  42   25   31 1
  43   26   27 ar
  44   26   44 1
  45   27   28 ar
  46   27   30 1
  47   28   29 ar
  48   28   45 1
  49   29   46 1
  50   32   47 1
  51   32   48 1
  52   32   49 1

#	End of record

