#	Name: ASD01028060
#	Creating user name:	WinNT
#	Creation time:	15. 06. 2019 18:56

#	Modifying user name:	WinNT
#	Modification time:	15. 06. 2019 18:56

#	Program:	/corina/corina34_cracker 3.40 0067  02.08.2006

@<TRIPOS>MOLECULE
ASD01028060
  88   93    0    0    0
SMALL
NO_CHARGES


@<TRIPOS>ATOM
   1 C1            -2.0877     1.1207     2.4947 C.3     
   2 C2            -1.7042    -0.3223     2.1640 C.3     
   3 C3            -2.0771    -1.2357     3.3315 C.3     
   4 C4            -0.3281     2.1318     3.7800 C.2     
   5 N5            -0.8574     1.9511     2.5291 N.am    
   6 N6             1.6090     2.6274     5.1709 N.3     
   7 N7             1.8175    -1.4680     5.9606 N.pl3   
   8 C8             2.6394    -0.6208     6.6825 C.ar    
   9 C9             2.4932     0.7437     6.4594 C.ar    
  10 C10            1.4542     1.2019     5.4692 C.3     
  11 C11            3.5692    -1.0770     7.6131 C.ar    
  12 C12            4.3592    -0.1630     8.2957 C.ar    
  13 C13            4.2195     1.1985     8.0497 C.ar    
  14 C14            3.2868     1.6456     7.1333 C.ar    
  15 O15           -1.9547    -2.6048     2.9464 O.3     
  16 C16           -1.0198    -3.3489     3.5917 C.ar    
  17 C17           -0.0942    -2.7087     4.3717 C.ar    
  18 C18            0.8815    -3.4613     5.0361 C.ar    
  19 C19            1.8595    -2.8261     5.8530 C.ar    
  20 N20            2.7542    -3.5922     6.4532 N.ar    
  21 O21            3.8825    -2.3355     8.0270 O.3     
  22 C22            4.8768    -2.2192     9.0497 C.3     
  23 O23            5.1850    -0.8256     9.1502 O.3     
  24 C24           -1.0026    -4.7432     3.4627 C.ar    
  25 C25           -0.0453    -5.4990     4.1068 C.ar    
  26 C26            0.9167    -4.8685     4.9054 C.ar    
  27 N27            1.8772    -5.5458     5.5554 N.ar    
  28 C28            2.7511    -4.9066     6.2986 C.ar    
  29 O29           -1.9395    -5.3582     2.6950 O.3     
  30 C30           -1.8694    -6.7825     2.6027 C.3     
  31 C31           -2.9970    -7.2913     1.7023 C.3     
  32 C32           -2.9220    -8.8163     1.6034 C.3     
  33 N33           -4.0046    -9.3047     0.7389 N.3     
  34 C34           -3.8276   -10.7301     0.4278 C.3     
  35 C35           -5.0142   -11.2185    -0.4063 C.3     
  36 N36           -5.1056   -10.4211    -1.6373 N.3     
  37 C37           -5.2826    -8.9958    -1.3262 C.3     
  38 C38           -4.0960    -8.5073    -0.4921 C.3     
  39 C39            0.9033     2.9863     3.9315 C.3     
  40 C40            1.1515     3.4544     6.2955 C.3     
  41 C41            1.8303     2.7615     2.7352 C.3     
  42 O42           -0.8423     1.6133     4.7483 O.2     
  43 C43           -6.1882   -10.9096    -2.5018 C.3     
  44 C44           -6.3088   -10.0040    -3.7291 C.3     
  45 O45           -5.1086   -10.0847    -4.5004 O.3     
  46 H46           -2.7644     1.5027     1.7303 H       
  47 H47           -2.5779     1.1542     3.4677 H       
  48 H48           -2.2366    -0.6429     1.2685 H       
  49 H49           -0.6303    -0.3805     1.9868 H       
  50 H50           -1.4126    -1.0364     4.1723 H       
  51 H51           -3.1056    -1.0357     3.6321 H       
  52 H52           -0.4604     2.3342     1.7312 H       
  53 H53            1.1099    -1.0332     5.4595 H       
  54 H54            0.4618     1.0286     5.8852 H       
  55 H55            1.5605     0.6294     4.5477 H       
  56 H56            4.8411     1.9079     8.5759 H       
  57 H57            3.1801     2.7037     6.9450 H       
  58 H58           -0.1165    -1.6337     4.4731 H       
  59 H59            4.4837    -2.5855     9.9980 H       
  60 H60            5.7684    -2.7811     8.7713 H       
  61 H61           -0.0382    -6.5733     3.9962 H       
  62 H62            3.5076    -5.4837     6.8095 H       
  63 H63           -0.9077    -7.0724     2.1795 H       
  64 H64           -1.9745    -7.2167     3.5970 H       
  65 H65           -3.9587    -7.0015     2.1255 H       
  66 H66           -2.8919    -6.8572     0.7080 H       
  67 H67           -1.9602    -9.1061     1.1802 H       
  68 H68           -3.0270    -9.2504     2.5977 H       
  69 H69           -2.9053   -10.8673    -0.1366 H       
  70 H70           -3.7753   -11.3009     1.3549 H       
  71 H71           -4.8709   -12.2682    -0.6627 H       
  72 H72           -5.9335   -11.1066     0.1686 H       
  73 H73           -5.3349    -8.4250    -2.2533 H       
  74 H74           -6.2049    -8.8586    -0.7618 H       
  75 H75           -4.2393    -7.4577    -0.2356 H       
  76 H76           -3.1767    -8.6193    -1.0670 H       
  77 H77            0.6126     4.0360     3.9710 H       
  78 H78            0.0622     3.4445     6.3343 H       
  79 H79            1.5519     3.0545     7.2271 H       
  80 H80            1.5009     4.4779     6.1596 H       
  81 H81            2.1246     1.7128     2.6956 H       
  82 H82            1.3081     3.0273     1.8160 H       
  83 H83            2.7184     3.3844     2.8416 H       
  84 H84           -5.9663   -11.9277    -2.8219 H       
  85 H85           -7.1275   -10.8992    -1.9489 H       
  86 H86           -7.1539   -10.3268    -4.3372 H       
  87 H87           -6.4652    -8.9745    -3.4070 H       
  88 H88           -5.1144    -9.5346    -5.2957 H       
@<TRIPOS>BOND
   1    1    2 1
   2    1    5 1
   3    1   46 1
   4    1   47 1
   5    2    3 1
   6    2   48 1
   7    2   49 1
   8    3   15 1
   9    3   50 1
  10    3   51 1
  11    4    5 am
  12    4   42 2
  13    4   39 1
  14    5   52 1
  15    6   39 1
  16    6   40 1
  17    6   10 1
  18    7    8 1
  19    7   19 1
  20    7   53 1
  21    8    9 ar
  22    8   11 ar
  23    9   10 1
  24    9   14 ar
  25   10   54 1
  26   10   55 1
  27   11   12 ar
  28   11   21 1
  29   12   13 ar
  30   12   23 1
  31   13   14 ar
  32   13   56 1
  33   14   57 1
  34   15   16 1
  35   16   17 ar
  36   16   24 ar
  37   17   18 ar
  38   17   58 1
  39   18   19 ar
  40   18   26 ar
  41   19   20 ar
  42   20   28 ar
  43   21   22 1
  44   22   23 1
  45   22   59 1
  46   22   60 1
  47   24   25 ar
  48   24   29 1
  49   25   26 ar
  50   25   61 1
  51   26   27 ar
  52   27   28 ar
  53   28   62 1
  54   29   30 1
  55   30   31 1
  56   30   63 1
  57   30   64 1
  58   31   32 1
  59   31   65 1
  60   31   66 1
  61   32   33 1
  62   32   67 1
  63   32   68 1
  64   33   34 1
  65   33   38 1
  66   34   35 1
  67   34   69 1
  68   34   70 1
  69   35   36 1
  70   35   71 1
  71   35   72 1
  72   36   37 1
  73   36   43 1
  74   37   38 1
  75   37   73 1
  76   37   74 1
  77   38   75 1
  78   38   76 1
  79   39   41 1
  80   39   77 1
  81   40   78 1
  82   40   79 1
  83   40   80 1
  84   41   81 1
  85   41   82 1
  86   41   83 1
  87   43   44 1
  88   43   84 1
  89   43   85 1
  90   44   45 1
  91   44   86 1
  92   44   87 1
  93   45   88 1

#	End of record

