#	Name: ASD02039121
#	Creating user name:	WinNT
#	Creation time:	15. 06. 2019 20:17

#	Modifying user name:	WinNT
#	Modification time:	15. 06. 2019 20:17

#	Program:	/corina/corina34_cracker 3.40 0067  02.08.2006

@<TRIPOS>MOLECULE
ASD02039121
  38   41    0    0    0
SMALL
NO_CHARGES


@<TRIPOS>ATOM
   1 N1             0.0234     1.2846    -0.3605 N.2     
   2 N2             0.0398    -0.0019    -0.3616 N.2     
   3 C3             1.2243     1.7332    -0.0874 C.2     
   4 O4             2.0203     0.6621     0.0884 O.3     
   5 C5             1.2410    -0.4221    -0.0917 C.2     
   6 N6             1.6034     3.0607     0.0028 N.pl3   
   7 C7             0.6404     4.0705    -0.0881 C.ar    
   8 C8             1.6810    -1.8604     0.0023 C.3     
   9 C9             2.1408    -2.3346    -1.3522 C.ar    
  10 C10           -0.6619     3.8293     0.3296 C.ar    
  11 C11            0.9861     5.3185    -0.5911 C.ar    
  12 C12            0.0336     6.3143    -0.6800 C.ar    
  13 C13           -1.2649     6.0707    -0.2683 C.ar    
  14 Cl14          -2.4597     7.3250    -0.3816 Cl      
  15 C15            3.4507    -2.1933    -1.7091 C.ar    
  16 C16            1.2286    -2.9166    -2.2235 C.ar    
  17 C17            1.6205    -3.3550    -3.4568 C.ar    
  18 C18            2.9492    -3.2195    -3.8506 C.ar    
  19 C19            3.8766    -2.6344    -2.9666 C.ar    
  20 N20            3.6409    -3.5486    -4.9870 N.pl3   
  21 N21            4.9800    -3.1758    -4.8311 N.2     
  22 C22            5.1609    -2.6364    -3.6595 C.2     
  23 C23           -1.6117     4.8294     0.2385 C.ar    
  24 Cl24          -3.2416     4.5274     0.7540 Cl      
  25 C25            6.4634    -2.1070    -3.1171 C.3     
  26 F26            7.4453    -2.1770    -4.1112 F       
  27 F27            6.2964    -0.7761    -2.7195 F       
  28 F28            6.8577    -2.8763    -2.0172 F       
  29 H29            2.5371     3.2910     0.1291 H       
  30 H30            2.5021    -1.9433     0.7144 H       
  31 H31            0.8455    -2.4747     0.3380 H       
  32 H32           -0.9323     2.8612     0.7248 H       
  33 H33            1.9994     5.5098    -0.9120 H       
  34 H34            0.3024     7.2845    -1.0711 H       
  35 H35            4.1545    -1.7432    -1.0246 H       
  36 H36            0.1971    -3.0241    -1.9222 H       
  37 H37            0.9014    -3.8060    -4.1245 H       
  38 H38            3.2627    -3.9725    -5.7732 H       
@<TRIPOS>BOND
   1    1    2 1
   2    1    3 2
   3    2    5 2
   4    3    4 1
   5    3    6 1
   6    4    5 1
   7    5    8 1
   8    6    7 1
   9    6   29 1
  10    7   10 ar
  11    7   11 ar
  12    8    9 1
  13    8   30 1
  14    8   31 1
  15    9   15 ar
  16    9   16 ar
  17   10   23 ar
  18   10   32 1
  19   11   12 ar
  20   11   33 1
  21   12   13 ar
  22   12   34 1
  23   13   23 ar
  24   13   14 1
  25   15   19 ar
  26   15   35 1
  27   16   17 ar
  28   16   36 1
  29   17   18 ar
  30   17   37 1
  31   18   19 ar
  32   18   20 1
  33   19   22 1
  34   20   21 1
  35   20   38 1
  36   21   22 2
  37   22   25 1
  38   23   24 1
  39   25   26 1
  40   25   27 1
  41   25   28 1

#	End of record

