#	Name: ASD00460018
#	Creating user name:	WinNT
#	Creation time:	15. 06. 2019 18:36

#	Modifying user name:	WinNT
#	Modification time:	15. 06. 2019 18:36

#	Program:	/corina/corina34_cracker 3.40 0067  02.08.2006

@<TRIPOS>MOLECULE
ASD00460018
  56   59    0    0    0
SMALL
NO_CHARGES


@<TRIPOS>ATOM
   1 C1            -0.0187     1.5258     0.0104 C.3     
   2 C2             0.0021    -0.0041     0.0020 C.3     
   3 C3             0.7182    -0.4975    -1.2568 C.3     
   4 C4             2.1536     0.0321    -1.2676 C.3     
   5 C5             2.1328     1.5619    -1.2592 C.3     
   6 C6             1.4167     2.0553    -0.0004 C.3     
   7 N7             0.7381    -1.9663    -1.2649 N.3     
   8 N8             2.8622    -0.4532    -0.0808 N.am    
   9 C9            -0.5030    -2.5065    -1.8355 C.3     
  10 C10           -0.3817    -2.5619    -3.3597 C.3     
  11 C11           -0.7396    -3.8950    -1.2997 C.ar    
  12 C12            0.2909    -4.6084    -0.7695 C.ar    
  13 C13            0.0913    -5.8939    -0.2691 C.ar    
  14 C14           -1.1400    -6.4729    -0.2961 C.ar    
  15 C15           -2.2288    -5.7667    -0.8355 C.ar    
  16 C16           -2.0269    -4.4577    -1.3395 C.ar    
  17 C17           -3.5149    -6.3316    -0.8805 C.ar    
  18 C18           -4.5456    -5.6180    -1.4103 C.ar    
  19 C19           -4.3459    -4.3326    -1.9108 C.ar    
  20 C20           -3.1157    -3.7515    -1.8790 C.ar    
  21 C21            4.2053    -0.5636    -0.0960 C.2     
  22 C22            4.9201    -1.0532     1.1013 C.ar    
  23 O23            4.8288    -0.2606    -1.0945 O.2     
  24 C24            6.3114    -1.1687     1.0885 C.ar    
  25 C25            6.9728    -1.6261     2.2087 C.ar    
  26 C26            6.2596    -1.9707     3.3450 C.ar    
  27 C27            4.8791    -1.8583     3.3637 C.ar    
  28 C28            4.2072    -1.3966     2.2515 C.ar    
  29 Cl29           7.0991    -2.5464     4.7512 Cl      
  30 H30           -0.5459     1.8868    -0.8726 H       
  31 H31           -0.5289     1.8773     0.9072 H       
  32 H32            0.5293    -0.3651     0.8851 H       
  33 H33           -1.0205    -0.3814     0.0098 H       
  34 H34            0.1910    -0.1364    -2.1398 H       
  35 H35            2.6638    -0.3194    -2.1644 H       
  36 H36            3.1554     1.9392    -1.2670 H       
  37 H37            1.6057     1.9230    -2.1423 H       
  38 H38            1.4019     3.1452     0.0056 H       
  39 H39            1.9439     1.6943     0.8826 H       
  40 H40            1.5453    -2.3143    -1.7603 H       
  41 H41            2.3646    -0.6951     0.7160 H       
  42 H42           -1.3392    -1.8636    -1.5607 H       
  43 H43           -1.3027    -2.9627    -3.7832 H       
  44 H44           -0.2106    -1.5576    -3.7473 H       
  45 H45            0.4545    -3.2048    -3.6345 H       
  46 H46            1.2783    -4.1721    -0.7364 H       
  47 H47            0.9263    -6.4387     0.1459 H       
  48 H48           -1.2796    -7.4700     0.0946 H       
  49 H49           -3.6844    -7.3269    -0.4971 H       
  50 H50           -5.5329    -6.0544    -1.4437 H       
  51 H51           -5.1808    -3.7881    -2.3265 H       
  52 H52           -2.9759    -2.7546    -2.2702 H       
  53 H53            6.8685    -0.9006     0.2030 H       
  54 H54            8.0490    -1.7162     2.1999 H       
  55 H55            4.3284    -2.1289     4.2524 H       
  56 H56            3.1308    -1.3091     2.2673 H       
@<TRIPOS>BOND
   1    1    2 1
   2    1    6 1
   3    1   30 1
   4    1   31 1
   5    2    3 1
   6    2   32 1
   7    2   33 1
   8    3    4 1
   9    3    7 1
  10    3   34 1
  11    4    5 1
  12    4    8 1
  13    4   35 1
  14    5    6 1
  15    5   36 1
  16    5   37 1
  17    6   38 1
  18    6   39 1
  19    7    9 1
  20    7   40 1
  21    8   21 am
  22    8   41 1
  23    9   10 1
  24    9   11 1
  25    9   42 1
  26   10   43 1
  27   10   44 1
  28   10   45 1
  29   11   12 ar
  30   11   16 ar
  31   12   13 ar
  32   12   46 1
  33   13   14 ar
  34   13   47 1
  35   14   15 ar
  36   14   48 1
  37   15   16 ar
  38   15   17 ar
  39   16   20 ar
  40   17   18 ar
  41   17   49 1
  42   18   19 ar
  43   18   50 1
  44   19   20 ar
  45   19   51 1
  46   20   52 1
  47   21   22 1
  48   21   23 2
  49   22   24 ar
  50   22   28 ar
  51   24   25 ar
  52   24   53 1
  53   25   26 ar
  54   25   54 1
  55   26   27 ar
  56   26   29 1
  57   27   28 ar
  58   27   55 1
  59   28   56 1

#	End of record

