#	Name: ASD01881113
#	Creating user name:	WinNT
#	Creation time:	15. 06. 2019 19:42

#	Modifying user name:	WinNT
#	Modification time:	15. 06. 2019 19:42

#	Program:	/corina/corina34_cracker 3.40 0067  02.08.2006

@<TRIPOS>MOLECULE
ASD01881113
  48   53    0    0    0
SMALL
NO_CHARGES


@<TRIPOS>ATOM
   1 C1            -0.0169     1.3929     0.0097 C.ar    
   2 C2             0.0021    -0.0041     0.0020 C.ar    
   3 C3             1.2138    -0.6907    -0.0132 C.ar    
   4 C4             2.4024     0.0195    -0.0208 C.ar    
   5 C5             2.3728     1.4247    -0.0130 C.ar    
   6 C6             1.1522     2.1001     0.0023 C.ar    
   7 N7             3.6288    -0.6373    -0.0355 N.pl3   
   8 C8             4.7931     0.0691    -0.0425 C.2     
   9 N9             4.8016     1.4566    -0.0357 N.am    
  10 C10            3.6502     2.1588    -0.0210 C.2     
  11 N11            3.9497    -2.0023    -0.0451 N.2     
  12 C12            5.2610    -2.1196    -0.0575 C.2     
  13 C13            5.8182    -0.8296    -0.0562 C.2     
  14 O14            3.6662     3.3754    -0.0153 O.2     
  15 C15           -1.2738    -0.7592     0.0106 C.ar    
  16 C16            6.0200    -3.3948    -0.0707 C.ar    
  17 C17           -2.4750    -0.0755     0.0262 C.ar    
  18 C18           -3.6805    -0.7950     0.0344 C.ar    
  19 C19           -3.6463    -2.2128     0.0264 C.ar    
  20 C20           -2.4066    -2.8782     0.0110 C.ar    
  21 C21           -1.2521    -2.1641    -0.0029 C.ar    
  22 C22            5.3419    -4.6121    -0.0711 C.ar    
  23 C23            7.4131    -3.3792    -0.0885 C.ar    
  24 C24            8.1140    -4.5681    -0.1011 C.ar    
  25 C25            7.4358    -5.7737    -0.0966 C.ar    
  26 C26            6.0528    -5.7950    -0.0838 C.ar    
  27 C27            6.0812     2.1698    -0.0439 C.3     
  28 N28           -4.8598    -0.1624     0.0500 N.ar    
  29 C29           -5.9726    -0.8597     0.0577 C.ar    
  30 C30           -5.9389    -2.2560     0.0502 C.ar    
  31 N31           -4.7940    -2.8996     0.0340 N.ar    
  32 H32           -0.9612     1.9169     0.0170 H       
  33 H33            1.2262    -1.7706    -0.0188 H       
  34 H34            1.1314     3.1798     0.0080 H       
  35 H35            6.8718    -0.5922    -0.0646 H       
  36 H36           -2.4861     1.0045     0.0325 H       
  37 H37           -2.3736    -3.9576     0.0048 H       
  38 H38           -0.3047    -2.6825    -0.0147 H       
  39 H39            4.2621    -4.6299    -0.0611 H       
  40 H40            7.9436    -2.4384    -0.0928 H       
  41 H41            9.1938    -4.5571    -0.1149 H       
  42 H42            7.9881    -6.7017    -0.1073 H       
  43 H43            5.5283    -6.7391    -0.0803 H       
  44 H44            6.3892     2.3518    -1.0735 H       
  45 H45            5.9700     3.1216     0.4757 H       
  46 H46            6.8365     1.5668     0.4601 H       
  47 H47           -6.9237    -0.3482     0.0703 H       
  48 H48           -6.8644    -2.8126     0.0570 H       
@<TRIPOS>BOND
   1    1    2 ar
   2    1    6 ar
   3    1   32 1
   4    2    3 ar
   5    2   15 1
   6    3    4 ar
   7    3   33 1
   8    4    5 ar
   9    4    7 1
  10    5    6 ar
  11    5   10 1
  12    6   34 1
  13    7    8 1
  14    7   11 1
  15    8    9 1
  16    8   13 2
  17    9   10 am
  18    9   27 1
  19   10   14 2
  20   11   12 2
  21   12   13 1
  22   12   16 1
  23   13   35 1
  24   15   17 ar
  25   15   21 ar
  26   16   22 ar
  27   16   23 ar
  28   17   18 ar
  29   17   36 1
  30   18   19 ar
  31   18   28 ar
  32   19   20 ar
  33   19   31 ar
  34   20   21 ar
  35   20   37 1
  36   21   38 1
  37   22   26 ar
  38   22   39 1
  39   23   24 ar
  40   23   40 1
  41   24   25 ar
  42   24   41 1
  43   25   26 ar
  44   25   42 1
  45   26   43 1
  46   27   44 1
  47   27   45 1
  48   27   46 1
  49   28   29 ar
  50   29   30 ar
  51   29   47 1
  52   30   31 ar
  53   30   48 1

#	End of record

