#	Name: ASD01890572
#	Creating user name:	WinNT
#	Creation time:	15. 06. 2019 19:51

#	Modifying user name:	WinNT
#	Modification time:	15. 06. 2019 19:51

#	Program:	/corina/corina34_cracker 3.40 0067  02.08.2006

@<TRIPOS>MOLECULE
ASD01890572
  37   39    0    0    0
SMALL
NO_CHARGES


@<TRIPOS>ATOM
   1 C1            -0.8634    -0.2181    -1.0816 C.2     
   2 C2            -0.0695     0.1286     0.1515 C.3     
   3 C3             1.2898    -0.5715     0.0964 C.3     
   4 C4             2.1534    -0.1015     1.2687 C.3     
   5 O5            -0.3534    -0.8631    -1.9669 O.2     
   6 O6            -2.1388     0.1850    -1.1940 O.3     
   7 C7             1.0908    -2.0627     0.1853 C.ar    
   8 C8             1.5227    -2.8801    -0.8425 C.ar    
   9 C9             1.3401    -4.2479    -0.7610 C.ar    
  10 C10            0.7261    -4.7984     0.3484 C.ar    
  11 C11            0.2950    -3.9811     1.3765 C.ar    
  12 C12            0.4815    -2.6136     1.2970 C.ar    
  13 C13            2.4657     1.3639     1.1068 C.2     
  14 N14            3.0289     1.8947     0.0610 N.2     
  15 C15            3.1622     3.2336     0.2443 C.ar    
  16 C16            2.6316     3.5282     1.5118 C.ar    
  17 N17            2.1943     2.3249     2.0304 N.pl3   
  18 C18            3.6865     4.2652    -0.5386 C.ar    
  19 C19            3.6783     5.5572    -0.0616 C.ar    
  20 C20            3.1528     5.8425     1.1915 C.ar    
  21 C21            2.6313     4.8359     1.9760 C.ar    
  22 Cl22           4.3304     6.8387    -1.0344 Cl      
  23 H23            0.0791     1.2075     0.1966 H       
  24 H24           -0.6122    -0.2008     1.0375 H       
  25 H25            1.7869    -0.3266    -0.8422 H       
  26 H26            1.6137    -0.2570     2.2029 H       
  27 H27            3.0826    -0.6712     1.2868 H       
  28 H28           -2.6074    -0.0614    -2.0032 H       
  29 H29            2.0025    -2.4500    -1.7092 H       
  30 H30            1.6769    -4.8864    -1.5643 H       
  31 H31            0.5828    -5.8669     0.4117 H       
  32 H32           -0.1851    -4.4111     2.2431 H       
  33 H33            0.1480    -1.9755     2.1019 H       
  34 H34            1.7735     2.1901     2.8939 H       
  35 H35            4.0972     4.0502    -1.5140 H       
  36 H36            3.1526     6.8598     1.5541 H       
  37 H37            2.2238     5.0646     2.9497 H       
@<TRIPOS>BOND
   1    1    2 1
   2    1    5 2
   3    1    6 1
   4    2    3 1
   5    2   23 1
   6    2   24 1
   7    3    4 1
   8    3    7 1
   9    3   25 1
  10    4   13 1
  11    4   26 1
  12    4   27 1
  13    6   28 1
  14    7    8 ar
  15    7   12 ar
  16    8    9 ar
  17    8   29 1
  18    9   10 ar
  19    9   30 1
  20   10   11 ar
  21   10   31 1
  22   11   12 ar
  23   11   32 1
  24   12   33 1
  25   13   14 2
  26   13   17 1
  27   14   15 1
  28   15   16 ar
  29   15   18 ar
  30   16   17 1
  31   16   21 ar
  32   17   34 1
  33   18   19 ar
  34   18   35 1
  35   19   20 ar
  36   19   22 1
  37   20   21 ar
  38   20   36 1
  39   21   37 1

#	End of record

