#	Name: ASD01881434
#	Creating user name:	WinNT
#	Creation time:	15. 06. 2019 19:42

#	Modifying user name:	WinNT
#	Modification time:	15. 06. 2019 19:42

#	Program:	/corina/corina34_cracker 3.40 0067  02.08.2006

@<TRIPOS>MOLECULE
ASD01881434
  51   56    0    0    0
SMALL
NO_CHARGES


@<TRIPOS>ATOM
   1 Cl1            2.0654     7.1115     2.0210 Cl      
   2 C2             0.8060     0.2720     3.1155 C.3     
   3 C3             1.4634     9.6324     5.3313 C.ar    
   4 C4             1.7952     8.3499     4.9470 C.ar    
   5 C5             0.1330     9.9810     5.5172 C.ar    
   6 C6            -0.8703     9.0387     5.3166 C.ar    
   7 C7            -0.5445     7.7539     4.9320 C.ar    
   8 C8             0.7926     7.4019     4.7448 C.ar    
   9 C9             1.1464     6.0240     4.3315 C.2     
  10 C10            1.7341     5.7931     3.1007 C.2     
  11 C11            0.8917     4.9307     5.1949 C.2     
  12 C12            1.2144     3.6796     4.8178 C.2     
  13 N13            1.7901     3.4411     3.6027 N.pl3   
  14 C14            2.0588     4.4739     2.7374 C.2     
  15 C15            2.2117     2.3098     2.9731 C.2     
  16 N16            2.6923     2.6626     1.8087 N.2     
  17 N17            2.6082     3.9377     1.6584 N.2     
  18 C18            2.1384     0.9069     3.5186 C.3     
  19 F19           -2.1644     9.3813     5.4989 F       
  20 O20           -0.1901    11.2455     5.8959 O.3     
  21 C21            0.8082    12.1616     5.9753 C.ar    
  22 C22            1.1690    12.9226     4.8661 C.ar    
  23 C23            2.1890    13.8440     4.9877 C.ar    
  24 N24            2.8191    14.0075     6.1354 N.ar    
  25 C25            2.5062    13.3056     7.2084 C.ar    
  26 C26            1.4943    12.3688     7.1700 C.ar    
  27 C27            3.2599    13.5345     8.4932 C.3     
  28 C28            0.5870    -1.1989     3.4751 C.3     
  29 C29           -0.1646    -0.1051     4.2364 C.3     
  30 C30            2.6504    14.5056     9.5063 C.3     
  31 C31            2.6346    13.0010     9.7837 C.3     
  32 H32            0.3790     0.6300     2.1787 H       
  33 H33            2.2403    10.3651     5.4922 H       
  34 H34            2.8309     8.0802     4.8024 H       
  35 H35           -1.3233     7.0220     4.7766 H       
  36 H36            0.4373     5.1015     6.1596 H       
  37 H37            1.0157     2.8537     5.4848 H       
  38 H38            2.2132     0.9354     4.6056 H       
  39 H39            2.9598     0.3161     3.1132 H       
  40 H40            0.6578    12.7931     3.9236 H       
  41 H41            2.4754    14.4384     4.1327 H       
  42 H42            1.2432    11.7978     8.0516 H       
  43 H43            4.3465    13.5084     8.4118 H       
  44 H44            0.0155    -1.8085     2.7752 H       
  45 H45            1.3921    -1.7143     3.9990 H       
  46 H46            0.1460     0.0992     5.2610 H       
  47 H47           -1.2306     0.0050     4.0373 H       
  48 H48            3.3361    15.1181    10.0918 H       
  49 H49            1.7044    14.9789     9.2436 H       
  50 H50            1.6781    12.4845     9.7034 H       
  51 H51            3.3098    12.6237    10.5516 H       
@<TRIPOS>BOND
   1    1   10 1
   2    2   28 1
   3    2   18 1
   4    2   29 1
   5    2   32 1
   6    3    4 ar
   7    3    5 ar
   8    3   33 1
   9    4    8 ar
  10    4   34 1
  11    5    6 ar
  12    5   20 1
  13    6    7 ar
  14    6   19 1
  15    7    8 ar
  16    7   35 1
  17    8    9 1
  18    9   10 2
  19    9   11 1
  20   10   14 1
  21   11   12 2
  22   11   36 1
  23   12   13 1
  24   12   37 1
  25   13   14 1
  26   13   15 1
  27   14   17 2
  28   15   16 2
  29   15   18 1
  30   16   17 1
  31   18   38 1
  32   18   39 1
  33   20   21 1
  34   21   22 ar
  35   21   26 ar
  36   22   23 ar
  37   22   40 1
  38   23   24 ar
  39   23   41 1
  40   24   25 ar
  41   25   26 ar
  42   25   27 1
  43   26   42 1
  44   27   30 1
  45   27   31 1
  46   27   43 1
  47   28   29 1
  48   28   44 1
  49   28   45 1
  50   29   46 1
  51   29   47 1
  52   30   31 1
  53   30   48 1
  54   30   49 1
  55   31   50 1
  56   31   51 1

#	End of record

