#	Name: ASD01915509
#	Creating user name:	WinNT
#	Creation time:	15. 06. 2019 20:05

#	Modifying user name:	WinNT
#	Modification time:	15. 06. 2019 20:05

#	Program:	/corina/corina34_cracker 3.40 0067  02.08.2006

@<TRIPOS>MOLECULE
ASD01915509
  43   46    0    0    0
SMALL
NO_CHARGES


@<TRIPOS>ATOM
   1 C1            -0.0043     1.4630     0.2176 C.2     
   2 N2             0.0615     0.1097    -0.0287 N.pl3   
   3 C3            -1.1511    -0.6744    -0.2922 C.3     
   4 C4            -2.3299    -0.0462     0.4494 C.3     
   5 N5            -2.4043     1.3988     0.2636 N.am    
   6 C6            -1.2916     2.1720     0.2677 C.2     
   7 C7             1.2785     1.9001     0.3937 C.2     
   8 C8             2.0745     0.7555     0.2522 C.2     
   9 N9             1.2812    -0.2617     0.0091 N.2     
  10 C10            3.5767     0.7019     0.3601 C.3     
  11 O11            4.0817     2.0106     0.6326 O.3     
  12 C12            5.4287     2.1379     0.7605 C.ar    
  13 C13           -3.6482     1.9976     0.0778 C.ar    
  14 O14           -1.3541     3.3860     0.3108 O.2     
  15 C15            5.9872     3.3799     1.0253 C.ar    
  16 C16            6.2470     1.0250     0.6323 C.ar    
  17 C17            7.6159     1.1570     0.7627 C.ar    
  18 C18            8.1706     2.3969     1.0209 C.ar    
  19 C19            7.3567     3.5066     1.1549 C.ar    
  20 C20           -4.8072     1.2635     0.3053 C.ar    
  21 C21           -6.0360     1.8706     0.1169 C.ar    
  22 C22           -6.0638     3.1964    -0.2944 C.ar    
  23 C23           -4.8737     3.8650    -0.5016 C.ar    
  24 N24           -3.7163     3.2618    -0.3086 N.ar    
  25 C25           -4.8971     5.3041    -0.9484 C.3     
  26 H26           -1.3558    -0.6792    -1.3628 H       
  27 H27           -1.0058    -1.6971     0.0555 H       
  28 H28           -3.2542    -0.4960     0.0868 H       
  29 H29           -2.2305    -0.2598     1.5137 H       
  30 H30            1.6073     2.9085     0.5971 H       
  31 H31            3.8590     0.0278     1.1689 H       
  32 H32            3.9956     0.3388    -0.5784 H       
  33 H33            5.3519     4.2470     1.1296 H       
  34 H34            5.8142     0.0562     0.4309 H       
  35 H35            8.2534     0.2909     0.6633 H       
  36 H36            9.2410     2.4980     1.1226 H       
  37 H37            7.7924     4.4741     1.3562 H       
  38 H38           -4.7488     0.2334     0.6244 H       
  39 H39           -6.9529     1.3253     0.2855 H       
  40 H40           -7.0066     3.6995    -0.4509 H       
  41 H41           -4.9030     5.9558    -0.0747 H       
  42 H42           -4.0127     5.5119    -1.5507 H       
  43 H43           -5.7924     5.4854    -1.5431 H       
@<TRIPOS>BOND
   1    1    2 1
   2    1    7 2
   3    1    6 1
   4    2    3 1
   5    2    9 1
   6    3    4 1
   7    3   26 1
   8    3   27 1
   9    4    5 1
  10    4   28 1
  11    4   29 1
  12    5    6 am
  13    5   13 1
  14    6   14 2
  15    7    8 1
  16    7   30 1
  17    8    9 2
  18    8   10 1
  19   10   11 1
  20   10   31 1
  21   10   32 1
  22   11   12 1
  23   12   15 ar
  24   12   16 ar
  25   13   20 ar
  26   13   24 ar
  27   15   19 ar
  28   15   33 1
  29   16   17 ar
  30   16   34 1
  31   17   18 ar
  32   17   35 1
  33   18   19 ar
  34   18   36 1
  35   19   37 1
  36   20   21 ar
  37   20   38 1
  38   21   22 ar
  39   21   39 1
  40   22   23 ar
  41   22   40 1
  42   23   24 ar
  43   23   25 1
  44   25   41 1
  45   25   42 1
  46   25   43 1

#	End of record

