#	Name: ASD01914818
#	Creating user name:	WinNT
#	Creation time:	15. 06. 2019 20:04

#	Modifying user name:	WinNT
#	Modification time:	15. 06. 2019 20:04

#	Program:	/corina/corina34_cracker 3.40 0067  02.08.2006

@<TRIPOS>MOLECULE
ASD01914818
  56   60    0    0    0
SMALL
NO_CHARGES


@<TRIPOS>ATOM
   1 N1             0.0268     1.3902    -0.1032 N.2     
   2 C2            -0.0386     0.0588     0.0783 C.2     
   3 C3             1.2326    -0.4203     0.1481 C.2     
   4 N4             2.0696     0.6508     0.0048 N.pl3   
   5 C5             1.2866     1.7580    -0.1490 C.2     
   6 C6            -1.2805    -0.7465     0.1839 C.ar    
   7 C7            -2.5253    -0.1261     0.0944 C.ar    
   8 C8            -1.2054    -2.1256     0.3670 C.ar    
   9 C9            -2.3628    -2.8714     0.4643 C.ar    
  10 C10           -3.5980    -2.2511     0.3802 C.ar    
  11 C11           -3.6781    -0.8795     0.1927 C.ar    
  12 C12            1.7755     3.1414    -0.3361 C.ar    
  13 C13            3.0837     3.4759     0.0157 C.ar    
  14 C14            3.5337     4.7680    -0.1617 C.ar    
  15 C15            2.6909     5.7311    -0.6873 C.ar    
  16 C16            1.3926     5.4060    -1.0378 C.ar    
  17 C17            0.9322     4.1162    -0.8706 C.ar    
  18 C18            3.5341     0.6167     0.0150 C.3     
  19 C19            4.0323     0.8495     1.4181 C.2     
  20 O20            3.2418     1.0265     2.3207 O.2     
  21 N21            5.3563     0.8610     1.6699 N.am    
  22 C22            5.8638     1.0864     3.0318 C.3     
  23 C23            6.3318     0.6425     0.5911 C.3     
  24 C24            7.3072    -0.4542     1.0316 C.3     
  25 N25            7.8890    -0.0943     2.3316 N.3     
  26 C26            6.8585    -0.0286     3.3714 C.3     
  27 C27            8.8937    -0.9785     2.6842 C.ar    
  28 N28            9.9120    -1.1636     1.8570 N.ar    
  29 N29            8.8171    -1.6156     3.8434 N.ar    
  30 C30            9.7607    -2.4668     4.2108 C.ar    
  31 C31           10.8376    -2.6880     3.3667 C.ar    
  32 C32           10.8888    -2.0011     2.1639 C.ar    
  33 Cl33          -5.2297    -0.1078     0.0881 Cl      
  34 F34           -4.7282    -2.9851     0.4755 F       
  35 H35            1.5248    -1.4503     0.2902 H       
  36 H36           -2.5880     0.9422    -0.0513 H       
  37 H37           -0.2427    -2.6106     0.4324 H       
  38 H38           -2.3049    -3.9405     0.6059 H       
  39 H39            3.7424     2.7250     0.4265 H       
  40 H40            4.5459     5.0282     0.1106 H       
  41 H41            3.0480     6.7411    -0.8243 H       
  42 H42            0.7395     6.1625    -1.4472 H       
  43 H43           -0.0815     3.8637    -1.1446 H       
  44 H44            3.8773    -0.3566    -0.3356 H       
  45 H45            3.9203     1.3963    -0.6417 H       
  46 H46            6.3661     2.0525     3.0802 H       
  47 H47            5.0350     1.0657     3.7395 H       
  48 H48            5.8123     0.3284    -0.3142 H       
  49 H49            6.8800     1.5651     0.4006 H       
  50 H50            6.7740    -1.4007     1.1212 H       
  51 H51            8.1020    -0.5526     0.2922 H       
  52 H52            7.3255     0.1817     4.3335 H       
  53 H53            6.3323    -0.9818     3.4227 H       
  54 H54            9.6929    -2.9828     5.1571 H       
  55 H55           11.6220    -3.3774     3.6422 H       
  56 H56           11.7143    -2.1507     1.4838 H       
@<TRIPOS>BOND
   1    1    2 1
   2    1    5 2
   3    2    3 2
   4    2    6 1
   5    3    4 1
   6    3   35 1
   7    4    5 1
   8    4   18 1
   9    5   12 1
  10    6    7 ar
  11    6    8 ar
  12    7   11 ar
  13    7   36 1
  14    8    9 ar
  15    8   37 1
  16    9   10 ar
  17    9   38 1
  18   10   11 ar
  19   10   34 1
  20   11   33 1
  21   12   13 ar
  22   12   17 ar
  23   13   14 ar
  24   13   39 1
  25   14   15 ar
  26   14   40 1
  27   15   16 ar
  28   15   41 1
  29   16   17 ar
  30   16   42 1
  31   17   43 1
  32   18   19 1
  33   18   44 1
  34   18   45 1
  35   19   20 2
  36   19   21 am
  37   21   22 1
  38   21   23 1
  39   22   26 1
  40   22   46 1
  41   22   47 1
  42   23   24 1
  43   23   48 1
  44   23   49 1
  45   24   25 1
  46   24   50 1
  47   24   51 1
  48   25   26 1
  49   25   27 1
  50   26   52 1
  51   26   53 1
  52   27   28 ar
  53   27   29 ar
  54   28   32 ar
  55   29   30 ar
  56   30   31 ar
  57   30   54 1
  58   31   32 ar
  59   31   55 1
  60   32   56 1

#	End of record

