#	Name: ASD01820108
#	Creating user name:	WinNT
#	Creation time:	15. 06. 2019 19:36

#	Modifying user name:	WinNT
#	Modification time:	15. 06. 2019 19:36

#	Program:	/corina/corina34_cracker 3.40 0067  02.08.2006

@<TRIPOS>MOLECULE
ASD01820108
  56   60    0    0    0
SMALL
NO_CHARGES


@<TRIPOS>ATOM
   1 O1             0.0181     1.3863    -0.0553 O.3     
   2 C2             0.0362    -0.0426    -0.0435 C.3     
   3 H3             0.5623    -0.4313    -0.9153 H       
   4 C4            -1.3973    -0.6129     0.0369 C.3     
   5 N5            -1.2966    -1.8070     0.8842 N.am    
   6 C6            -0.1523    -1.8103     1.5895 C.2     
   7 O7             0.1793    -2.6760     2.3713 O.2     
   8 C8             0.6630    -0.5773     1.2650 C.3     
   9 C9            -2.2603    -2.8064     0.9486 C.ar    
  10 C10           -3.3571    -2.7526     0.0883 C.ar    
  11 C11           -4.3081    -3.7362     0.1491 C.ar    
  12 C12           -4.1366    -4.7642     1.0823 C.ar    
  13 C13           -5.1160    -5.8555     1.2057 C.2     
  14 O14           -6.1088    -5.9011     0.4999 O.2     
  15 C15           -4.8455    -6.8904     2.2176 C.2     
  16 C16           -3.7056    -6.7860     2.9864 C.2     
  17 N17           -2.8358    -5.7741     2.8434 N.pl3   
  18 C18           -3.0095    -4.7644     1.9235 C.ar    
  19 N19           -2.1145    -3.7898     1.8204 N.ar    
  20 C20           -1.7017    -5.7435     3.6664 C.ar    
  21 C21           -1.7498    -5.0935     4.8944 C.ar    
  22 F22           -2.8901    -4.4908     5.2964 F       
  23 C23           -0.6288    -5.0650     5.7044 C.ar    
  24 C24            0.5399    -5.6826     5.2925 C.ar    
  25 F25            1.6336    -5.6531     6.0850 F       
  26 C26            0.5897    -6.3310     4.0697 C.ar    
  27 C27           -0.5291    -6.3675     3.2589 C.ar    
  28 Cl28          -0.4671    -7.1863     1.7294 Cl      
  29 C29           -5.7749    -8.0154     2.4052 C.2     
  30 O30           -5.4901    -8.9188     3.1684 O.2     
  31 N31           -6.9419    -8.0449     1.7317 N.am    
  32 C32           -7.8139    -9.2181     1.8283 C.3     
  33 H33           -7.2045   -10.1184     1.9070 H       
  34 C34           -8.6926    -9.3048     0.5787 C.3     
  35 C35           -8.4285   -10.4575    -0.3921 C.3     
  36 C36           -9.6796   -10.4704     0.4886 C.3     
  37 C37           -8.7016    -9.0931     3.0682 C.3     
  38 F38           -9.4838    -7.9377     2.9672 F       
  39 F39           -9.5343   -10.2135     3.1605 F       
  40 F40           -7.8981    -9.0139     4.2108 F       
  41 H41            0.8965     1.7907    -0.0574 H       
  42 H42           -2.0684     0.1162     0.4909 H       
  43 H43           -1.7514    -0.8847    -0.9574 H       
  44 H44            1.7087    -0.8413     1.1070 H       
  45 H45            0.5712     0.1611     2.0615 H       
  46 H46           -3.4555    -1.9426    -0.6192 H       
  47 H47           -5.1671    -3.7186    -0.5052 H       
  48 H48           -3.5062    -7.5442     3.7292 H       
  49 H49           -0.6652    -4.5603     6.6585 H       
  50 H50            1.5026    -6.8119     3.7509 H       
  51 H51           -7.2044    -7.2894     1.1829 H       
  52 H52           -9.0017    -8.3496     0.1542 H       
  53 H53           -8.5636   -10.2608    -1.4556 H       
  54 H54           -7.6288   -11.1541    -0.1405 H       
  55 H55           -9.7029   -11.1755     1.3194 H       
  56 H56          -10.6378   -10.2822     0.0044 H       
@<TRIPOS>BOND
   1    1    2 1
   2    1   41 1
   3    2    3 1
   4    2    8 1
   5    2    4 1
   6    4    5 1
   7    4   42 1
   8    4   43 1
   9    5    6 am
  10    5    9 1
  11    6    7 2
  12    6    8 1
  13    8   44 1
  14    8   45 1
  15    9   19 ar
  16    9   10 ar
  17   10   11 ar
  18   10   46 1
  19   11   12 ar
  20   11   47 1
  21   12   18 ar
  22   12   13 1
  23   13   14 2
  24   13   15 1
  25   15   16 2
  26   15   29 1
  27   16   17 1
  28   16   48 1
  29   17   18 1
  30   17   20 1
  31   18   19 ar
  32   20   27 ar
  33   20   21 ar
  34   21   22 1
  35   21   23 ar
  36   23   24 ar
  37   23   49 1
  38   24   25 1
  39   24   26 ar
  40   26   27 ar
  41   26   50 1
  42   27   28 1
  43   29   30 2
  44   29   31 am
  45   31   32 1
  46   31   51 1
  47   32   33 1
  48   32   34 1
  49   32   37 1
  50   34   36 1
  51   34   35 1
  52   34   52 1
  53   35   36 1
  54   35   53 1
  55   35   54 1
  56   36   55 1
  57   36   56 1
  58   37   38 1
  59   37   39 1
  60   37   40 1

#	End of record

