#	Name: ASD00170443
#	Creating user name:	WinNT
#	Creation time:	15. 06. 2019 18:32

#	Modifying user name:	WinNT
#	Modification time:	15. 06. 2019 18:32

#	Program:	/corina/corina34_cracker 3.40 0067  02.08.2006

@<TRIPOS>MOLECULE
ASD00170443
  61   64    0    0    0
SMALL
NO_CHARGES


@<TRIPOS>ATOM
   1 C1             0.5445     1.9687     0.4732 C.2     
   2 C2             0.5720     0.5978     0.6091 C.2     
   3 C3            -0.7142    -0.0138     0.3737 C.2     
   4 C4            -1.6688     0.8751     0.0721 C.2     
   5 S5            -1.0221     2.5061     0.0719 S.3     
   6 C6            -0.9569    -1.4988     0.4579 C.3     
   7 N7             1.6349     2.7941     0.6445 N.pl3   
   8 C8             1.7769    -0.1577     0.9552 C.2     
   9 C9             2.6210    -0.7333    -0.1137 C.ar    
  10 O10            2.0841    -0.3121     2.1233 O.2     
  11 C11            3.7076    -1.5468     0.2131 C.ar    
  12 C12            4.4909    -2.0811    -0.7881 C.ar    
  13 C13            4.2015    -1.8123    -2.1157 C.ar    
  14 C14            3.1248    -1.0060    -2.4461 C.ar    
  15 C15            2.3310    -0.4703    -1.4538 C.ar    
  16 Cl16           5.1926    -2.4882    -3.3706 Cl      
  17 C17           -3.0764     0.5301    -0.2161 C.ar    
  18 C18           -4.1104     1.1821     0.4583 C.ar    
  19 C19           -5.4223     0.8552     0.1844 C.ar    
  20 C20           -5.7145    -0.1165    -0.7563 C.ar    
  21 C21           -4.6945    -0.7670    -1.4279 C.ar    
  22 C22           -3.3784    -0.4453    -1.1682 C.ar    
  23 N23           -1.1899    -1.8782     1.8578 N.3     
  24 C24           -2.4385    -1.2908     2.3618 C.3     
  25 C25           -1.1949    -3.3390     2.0135 C.3     
  26 C26           -2.4964    -1.4431     3.8599 C.2     
  27 C27           -2.6648    -0.3891     4.6194 C.2     
  28 C28           -2.1596    -3.9566     0.9992 C.3     
  29 C29           -2.1649    -5.4780     1.1613 C.3     
  30 C30           -0.7550    -6.0214     0.9205 C.3     
  31 C31            0.2097    -5.4037     1.9347 C.3     
  32 C32            0.2150    -3.8824     1.7726 C.3     
  33 H33           -1.8311    -1.7584    -0.1392 H       
  34 H34           -0.0856    -2.0316     0.0772 H       
  35 H35            2.4788     2.4257     0.9496 H       
  36 H36            1.5584     3.7433     0.4600 H       
  37 H37            3.9345    -1.7567     1.2479 H       
  38 H38            5.3320    -2.7102    -0.5365 H       
  39 H39            2.9042    -0.7997    -3.4829 H       
  40 H40            1.4916     0.1580    -1.7126 H       
  41 H41           -3.8837     1.9406     1.1930 H       
  42 H42           -6.2231     1.3586     0.7056 H       
  43 H43           -6.7433    -0.3687    -0.9669 H       
  44 H44           -4.9294    -1.5248    -2.1607 H       
  45 H45           -2.5833    -0.9537    -1.6931 H       
  46 H46           -2.4728    -0.2327     2.1025 H       
  47 H47           -3.2887    -1.8030     1.9113 H       
  48 H48           -1.5157    -3.5957     3.0231 H       
  49 H49           -2.3992    -2.4212     4.3075 H       
  50 H50           -2.7064    -0.4982     5.6931 H       
  51 H51           -2.7621     0.5890     4.1718 H       
  52 H52           -3.1640    -3.5695     1.1708 H       
  53 H53           -1.8388    -3.6999    -0.0104 H       
  54 H54           -2.4857    -5.7347     2.1709 H       
  55 H55           -2.8522    -5.9180     0.4388 H       
  56 H56           -0.7587    -7.1052     1.0360 H       
  57 H57           -0.4342    -5.7646    -0.0891 H       
  58 H58           -0.1111    -5.6605     2.9443 H       
  59 H59            1.2141    -5.7909     1.7632 H       
  60 H60            0.5358    -3.6256     0.7631 H       
  61 H61            0.9023    -3.4423     2.4952 H       
@<TRIPOS>BOND
   1    1    2 2
   2    1    7 1
   3    1    5 1
   4    2    3 1
   5    2    8 1
   6    3    4 2
   7    3    6 1
   8    4    5 1
   9    4   17 1
  10    6   23 1
  11    6   33 1
  12    6   34 1
  13    7   35 1
  14    7   36 1
  15    8    9 1
  16    8   10 2
  17    9   11 ar
  18    9   15 ar
  19   11   12 ar
  20   11   37 1
  21   12   13 ar
  22   12   38 1
  23   13   14 ar
  24   13   16 1
  25   14   15 ar
  26   14   39 1
  27   15   40 1
  28   17   18 ar
  29   17   22 ar
  30   18   19 ar
  31   18   41 1
  32   19   20 ar
  33   19   42 1
  34   20   21 ar
  35   20   43 1
  36   21   22 ar
  37   21   44 1
  38   22   45 1
  39   23   24 1
  40   23   25 1
  41   24   26 1
  42   24   46 1
  43   24   47 1
  44   25   28 1
  45   25   32 1
  46   25   48 1
  47   26   27 2
  48   26   49 1
  49   27   50 1
  50   27   51 1
  51   28   29 1
  52   28   52 1
  53   28   53 1
  54   29   30 1
  55   29   54 1
  56   29   55 1
  57   30   31 1
  58   30   56 1
  59   30   57 1
  60   31   32 1
  61   31   58 1
  62   31   59 1
  63   32   60 1
  64   32   61 1

#	End of record

