#	Name: ASD01200359
#	Creating user name:	WinNT
#	Creation time:	15. 06. 2019 19:09

#	Modifying user name:	WinNT
#	Modification time:	15. 06. 2019 19:09

#	Program:	/corina/corina34_cracker 3.40 0067  02.08.2006

@<TRIPOS>MOLECULE
ASD01200359
  59   61    0    0    0
SMALL
NO_CHARGES


@<TRIPOS>ATOM
   1 Cl1           -0.2068     4.2893     0.1869 Cl      
   2 O2            -0.0162     1.3440     0.0094 O.3     
   3 O3            -0.0113    -3.8290     2.2148 O.2     
   4 O4             1.4944    -3.0866     0.0088 O.2     
   5 O5            -3.2010    -9.2284     4.5319 O.3     
   6 O6            -3.9210   -10.3266     7.0883 O.3     
   7 N7            -0.6186    -2.2812     0.1865 N.am    
   8 N8            -1.4350    -5.4854     1.8253 N.am    
   9 N9            -0.7382    -7.7092     4.5202 N.pl3   
  10 N10           -1.4396    -7.3529     3.3613 N.2     
  11 C11           -1.3642    -3.5368     0.3032 C.3     
  12 C12           -1.1342    -4.3848    -0.9494 C.3     
  13 C13           -1.7303    -3.6716    -2.1646 C.3     
  14 C14           -1.1861    -0.9248     0.2008 C.3     
  15 C15           -0.8876    -4.2932     1.5164 C.2     
  16 C16            0.7139    -2.1533     0.0522 C.2     
  17 C17           -1.3923    -4.4569    -3.4334 C.3     
  18 C18           -3.2498    -3.5828    -2.0093 C.3     
  19 C19            0.0047    -0.0034     0.0504 C.2     
  20 C20            1.0881    -0.7952    -0.0311 C.2     
  21 C21           -0.9917    -6.1889     2.9535 C.2     
  22 C22           -0.9275    -8.9364     5.2976 C.3     
  23 C23            0.0098    -5.7716     3.8447 C.2     
  24 C24           -2.3977    -9.0623     5.7020 C.3     
  25 C25            0.1465    -6.7269     4.7922 C.2     
  26 C26           -0.6107     1.9193    -1.0687 C.ar    
  27 C27           -2.5728   -10.2758     6.6172 C.3     
  28 C28           -0.7682     3.2982    -1.1231 C.ar    
  29 C29           -1.0562     1.1311    -2.1195 C.ar    
  30 C30           -1.3727     3.8802    -2.2212 C.ar    
  31 C31           -1.6599     1.7185    -3.2149 C.ar    
  32 C32           -1.8204     3.0907    -3.2647 C.ar    
  33 H33           -2.4276    -3.3199     0.4049 H       
  34 H34           -0.0641    -4.5271    -1.1003 H       
  35 H35           -1.6158    -5.3547    -0.8250 H       
  36 H36           -1.3132    -2.6671    -2.2371 H       
  37 H37           -1.8751    -0.7932    -0.6335 H       
  38 H38           -1.6942    -0.7363     1.1466 H       
  39 H39           -1.8094    -5.4614    -3.3609 H       
  40 H40           -1.8170    -3.9488    -4.2992 H       
  41 H41           -0.3098    -4.5202    -3.5441 H       
  42 H42           -3.6669    -4.5872    -1.9368 H       
  43 H43           -3.4906    -3.0233    -1.1054 H       
  44 H44           -3.6745    -3.0747    -2.8751 H       
  45 H45            2.1024    -0.4416    -0.1422 H       
  46 H46           -2.1358    -5.8566     1.2667 H       
  47 H47           -0.6420    -9.7972     4.6930 H       
  48 H48           -0.3065    -8.8990     6.1926 H       
  49 H49            0.5738    -4.8527     3.7824 H       
  50 H50           -2.7077    -8.1609     6.2305 H       
  51 H51            0.8366    -6.7047     5.6227 H       
  52 H52           -1.8943   -10.1916     7.4661 H       
  53 H53           -2.3478   -11.1858     6.0611 H       
  54 H54           -0.9309     0.0591    -2.0817 H       
  55 H55           -2.9801   -10.0127     4.0112 H       
  56 H56           -1.4960     4.9523    -2.2643 H       
  57 H57           -2.0065     1.1049    -4.0333 H       
  58 H58           -2.2929     3.5474    -4.1218 H       
  59 H59           -4.1046   -11.0726     7.6755 H       
@<TRIPOS>BOND
   1    1   28 1
   2    2   19 1
   3    2   26 1
   4    3   15 2
   5    4   16 2
   6    5   55 1
   7    5   24 1
   8    6   27 1
   9    6   59 1
  10    7   11 1
  11    7   14 1
  12    7   16 am
  13    8   15 am
  14    8   21 1
  15    8   46 1
  16    9   10 1
  17    9   22 1
  18    9   25 1
  19   10   21 2
  20   11   12 1
  21   11   15 1
  22   11   33 1
  23   12   13 1
  24   12   34 1
  25   12   35 1
  26   13   17 1
  27   13   18 1
  28   13   36 1
  29   14   19 1
  30   14   37 1
  31   14   38 1
  32   16   20 1
  33   17   39 1
  34   17   40 1
  35   17   41 1
  36   18   42 1
  37   18   43 1
  38   18   44 1
  39   19   20 2
  40   20   45 1
  41   21   23 1
  42   22   24 1
  43   22   47 1
  44   22   48 1
  45   23   25 2
  46   23   49 1
  47   24   27 1
  48   24   50 1
  49   25   51 1
  50   26   28 ar
  51   26   29 ar
  52   27   52 1
  53   27   53 1
  54   28   30 ar
  55   29   31 ar
  56   29   54 1
  57   30   32 ar
  58   30   56 1
  59   31   32 ar
  60   31   57 1
  61   32   58 1

#	End of record

