#	Name: ASD01410707
#	Creating user name:	WinNT
#	Creation time:	15. 06. 2019 19:18

#	Modifying user name:	WinNT
#	Modification time:	15. 06. 2019 19:18

#	Program:	/corina/corina34_cracker 3.40 0067  02.08.2006

@<TRIPOS>MOLECULE
ASD01410707
  79   84    0    0    0
SMALL
NO_CHARGES


@<TRIPOS>ATOM
   1 N1            -0.0202     1.6350     0.0110 N.am    
   2 C2            -2.8262     2.4451    -1.9139 C.3     
   3 N3            -2.9671     1.0391    -5.4352 N.am    
   4 S4             0.0021    -0.0041     0.0020 S.o2    
   5 O5            -0.2321    -0.4988    -1.2916 O.2     
   6 N6             1.4906    -0.5317     0.4558 N.am    
   7 O7            -0.8949    -0.4402     1.1015 O.2     
   8 C8             2.5893    -0.5109    -0.4506 C.2     
   9 O9             3.6050    -0.8940     0.1399 O.2     
  10 C10            2.7566    -0.1604    -1.7417 C.ar    
  11 C11            4.0057     0.4539    -1.9712 C.ar    
  12 C12            4.4626     0.9338    -3.2078 C.ar    
  13 C13            3.4714     0.8751    -4.2748 C.ar    
  14 C14            2.2841     0.1549    -4.0759 C.ar    
  15 C15            1.9550    -0.4004    -2.8002 C.ar    
  16 C16            3.4077     1.4153    -5.5700 C.2     
  17 C17            2.3678     0.9589    -6.1883 C.2     
  18 N18            1.6163     0.1442    -5.2802 N.pl3   
  19 C19            4.5051     2.3036    -6.1174 C.3     
  20 C20            4.6465     3.5436    -5.2323 C.3     
  21 C21            5.8266     1.5326    -6.1299 C.3     
  22 C22            6.9355     2.4302    -6.6829 C.3     
  23 C23            7.0768     3.6702    -5.7979 C.3     
  24 C24            5.7553     4.4411    -5.7853 C.3     
  25 C25            1.9147     1.3202    -7.5523 C.ar    
  26 C26            0.5415     1.5043    -7.8963 C.ar    
  27 C27           -0.5595     1.1344    -6.9647 C.2     
  28 C28           -0.6847     0.3181    -6.0084 C.2     
  29 C29            0.4168    -0.6562    -5.6220 C.3     
  30 C30           -1.8827     0.2006    -5.2321 C.2     
  31 O31           -2.0474    -0.6887    -4.4353 O.2     
  32 C32            2.8395     1.3794    -8.5248 C.ar    
  33 C33            2.5650     1.7755    -9.8545 C.ar    
  34 C34            1.2317     2.0580   -10.1626 C.ar    
  35 C35            0.2105     1.8948    -9.2101 C.ar    
  36 Cl36           0.8194     2.6687   -11.7438 Cl      
  37 C37           -3.2661     1.4663    -3.0934 C.3     
  38 C38           -2.9894     2.1443    -4.4189 C.3     
  39 C39           -2.3677     1.6286    -0.6946 C.3     
  40 C40           -1.2031     2.3967    -0.0431 C.3     
  41 C41            1.2826     2.3507     0.0024 C.3     
  42 C42           -3.9249     0.9694    -6.4713 C.3     
  43 H43           -2.0353     3.1027    -2.3136 H       
  44 H44           -3.7292     3.0269    -1.5800 H       
  45 H45            1.6957    -0.9282     1.3410 H       
  46 H46            4.7096     0.5496    -1.1849 H       
  47 H47            5.3909     1.4174    -3.3330 H       
  48 H48            0.9909    -0.9581    -2.7168 H       
  49 H49            4.2529     2.6088    -7.1329 H       
  50 H50            3.7050     4.0928    -5.2234 H       
  51 H51            4.8987     3.2383    -4.2168 H       
  52 H52            6.0789     1.2274    -5.1144 H       
  53 H53            5.7259     0.6492    -6.7604 H       
  54 H54            7.8769     1.8809    -6.6919 H       
  55 H55            6.6832     2.7354    -7.6985 H       
  56 H56            7.3290     3.3649    -4.7824 H       
  57 H57            7.8668     4.3096    -6.1919 H       
  58 H58            5.5031     4.7464    -6.8009 H       
  59 H59            5.8560     5.3246    -5.1548 H       
  60 H60           -1.4558     1.7740    -7.2303 H       
  61 H61            0.6594    -1.2568    -6.4401 H       
  62 H62            0.0706    -1.1596    -4.7849 H       
  63 H63            3.9119     1.0789    -8.3562 H       
  64 H64            3.2828     1.8791   -10.5376 H       
  65 H65           -0.7850     2.0553    -9.5012 H       
  66 H66           -2.6589     0.5324    -3.0128 H       
  67 H67           -4.3366     1.2079    -2.9991 H       
  68 H68           -2.0800     2.6671    -4.4335 H       
  69 H69           -3.8414     2.7753    -4.6251 H       
  70 H70           -3.1669     1.4313    -0.0799 H       
  71 H71           -1.9830     0.6523    -1.1587 H       
  72 H72           -1.5386     2.5392     1.0385 H       
  73 H73           -1.0365     3.3475    -0.5465 H       
  74 H74            2.0958     1.6250    -0.0092 H       
  75 H75            1.3452     2.9808    -0.8848 H       
  76 H76            1.3622     2.9712     0.8950 H       
  77 H77           -3.6919     0.1292    -7.1255 H       
  78 H78           -4.9165     0.8305    -6.0407 H       
  79 H79           -3.9052     1.8946    -7.0472 H       
@<TRIPOS>BOND
   1    1    4 am
   2    1   41 1
   3    1   40 1
   4    2   37 1
   5    2   39 1
   6    2   43 1
   7    2   44 1
   8    3   30 am
   9    3   42 1
  10    3   38 1
  11    4    5 2
  12    4    6 am
  13    4    7 2
  14    6    8 am
  15    6   45 1
  16    8    9 2
  17    8   10 1
  18   10   11 ar
  19   10   15 ar
  20   11   12 ar
  21   11   46 1
  22   12   13 ar
  23   12   47 1
  24   13   14 ar
  25   13   16 1
  26   14   15 ar
  27   14   18 1
  28   15   48 1
  29   16   17 2
  30   16   19 1
  31   17   18 1
  32   17   25 1
  33   18   29 1
  34   19   20 1
  35   19   21 1
  36   19   49 1
  37   20   24 1
  38   20   50 1
  39   20   51 1
  40   21   22 1
  41   21   52 1
  42   21   53 1
  43   22   23 1
  44   22   54 1
  45   22   55 1
  46   23   24 1
  47   23   56 1
  48   23   57 1
  49   24   58 1
  50   24   59 1
  51   25   26 ar
  52   25   32 ar
  53   26   27 1
  54   26   35 ar
  55   27   28 2
  56   27   60 1
  57   28   29 1
  58   28   30 1
  59   29   61 1
  60   29   62 1
  61   30   31 2
  62   32   33 ar
  63   32   63 1
  64   33   34 ar
  65   33   64 1
  66   34   35 ar
  67   34   36 1
  68   35   65 1
  69   37   38 1
  70   37   66 1
  71   37   67 1
  72   38   68 1
  73   38   69 1
  74   39   40 1
  75   39   70 1
  76   39   71 1
  77   40   72 1
  78   40   73 1
  79   41   74 1
  80   41   75 1
  81   41   76 1
  82   42   77 1
  83   42   78 1
  84   42   79 1

#	End of record

