#	Name: ASD03081101
#	Creating user name:	WinNT
#	Creation time:	15. 06. 2019 20:26

#	Modifying user name:	WinNT
#	Modification time:	15. 06. 2019 20:26

#	Program:	/corina/corina34_cracker 3.40 0067  02.08.2006

@<TRIPOS>MOLECULE
ASD03081101
  11   11    0    0    0
SMALL
NO_CHARGES


@<TRIPOS>ATOM
   1 C1            -0.0158     1.3144     0.0093 C.ar    
   2 N2             0.0021    -0.0041     0.0020 N.ar    
   3 C3             1.1442    -0.6687    -0.0125 C.ar    
   4 C4             2.3456     0.0501    -0.0202 C.ar    
   5 C5             2.2777     1.4485    -0.0120 C.ar    
   6 N6             1.0914     2.0305     0.0025 N.ar    
   7 C7             3.6079    -0.6258    -0.0354 C.1     
   8 N8             4.6094    -1.1620    -0.0475 N.1     
   9 H9            -0.9679     1.8242     0.0165 H       
  10 H10            1.1507    -1.7486    -0.0180 H       
  11 H11            3.1801     2.0418    -0.0171 H       
@<TRIPOS>BOND
   1    1    2 ar
   2    1    6 ar
   3    1    9 1
   4    2    3 ar
   5    3    4 ar
   6    3   10 1
   7    4    5 ar
   8    4    7 1
   9    5    6 ar
  10    5   11 1
  11    7    8 3

#	End of record

