#	Name: ASD00843377
#	Creating user name:	WinNT
#	Creation time:	15. 06. 2019 18:46

#	Modifying user name:	WinNT
#	Modification time:	15. 06. 2019 18:46

#	Program:	/corina/corina34_cracker 3.40 0067  02.08.2006

@<TRIPOS>MOLECULE
ASD00843377
  92   97    0    0    0
SMALL
NO_CHARGES


@<TRIPOS>ATOM
   1 N1             0.9929     1.1258     0.0115 N.ar    
   2 C2             1.1763    -0.1307    -0.3579 C.ar    
   3 C3             1.0452    -1.1648     0.5605 C.ar    
   4 C4             0.7193    -0.8639     1.8712 C.ar    
   5 C5             0.5350     0.4675     2.2187 C.ar    
   6 C6             0.6814     1.4439     1.2538 C.ar    
   7 C7             1.2547    -2.5952     0.1348 C.3     
   8 C8             0.9145    -3.5410     1.2669 C.2     
   9 C9             0.4123    -2.9141    -1.1019 C.3     
  10 C10           -1.0315    -2.5826    -0.8254 C.2     
  11 N11           -1.9790    -2.8881    -1.7339 N.am    
  12 O12           -1.3409    -2.0408     0.2147 O.2     
  13 C13           -3.3730    -2.4704    -1.5311 C.3     
  14 C14           -4.2780    -3.7011    -1.6451 C.3     
  15 C15           -4.0189    -4.3978    -2.9828 C.3     
  16 C16           -2.5620    -4.8623    -3.0443 C.3     
  17 C17           -1.6365    -3.6399    -2.9489 C.3     
  18 C18           -4.9457    -5.6080    -3.1153 C.3     
  19 C19           -6.4039    -5.1446    -3.0557 C.3     
  20 C20           -7.3257    -6.3508    -3.2496 C.3     
  21 N21           -7.0455    -6.9789    -4.5470 N.3     
  22 C22           -5.6645    -7.4742    -4.6101 C.3     
  23 C23           -4.6932    -6.3015    -4.4568 C.3     
  24 C24           -8.0043    -8.0557    -4.8286 C.3     
  25 O25           -0.1667    -3.6636     1.8024 O.2     
  26 N26            2.0345    -4.2194     1.5667 N.am    
  27 C27            2.7187    -2.8588    -0.1351 C.ar    
  28 C28            3.1103    -3.8460     0.7660 C.ar    
  29 C29            3.6095    -2.3277    -1.0331 C.ar    
  30 C30            4.9339    -2.7796    -1.0500 C.ar    
  31 C31            5.3347    -3.7717    -0.1471 C.ar    
  32 C32            4.4297    -4.2984     0.7495 C.ar    
  33 F33            6.6109    -4.2148    -0.1554 F       
  34 C34            1.7345    -6.9187     2.0117 C.ar    
  35 C35            0.4642    -7.1434     1.5020 C.ar    
  36 C36            2.6949    -7.9088     1.9313 C.ar    
  37 C37            2.3908    -9.1223     1.3430 C.ar    
  38 C38            1.1251    -9.3487     0.8340 C.ar    
  39 C39            0.1613    -8.3623     0.9124 C.ar    
  40 H40            0.8899   -10.2975     0.3749 H       
  41 O41           -0.4823    -6.1713     1.5802 O.3     
  42 C42           -1.7682    -6.4725     1.0345 C.3     
  43 C43           -7.8427    -8.5162    -6.2787 C.3     
  44 C44            5.8714    -2.2321    -1.9837 C.1     
  45 N45            6.6152    -1.7977    -2.7244 N.1     
  46 S46            2.1253    -5.3695     2.7547 S.o2    
  47 O47            3.4913    -5.4422     3.1393 O.2     
  48 O48            1.0745    -5.0864     3.6684 O.2     
  49 O49            1.4952    -0.4126    -1.6462 O.3     
  50 C50            1.5763     0.6907    -2.5507 C.3     
  51 C51            2.0387     0.1932    -3.9217 C.3     
  52 F52            3.2572    -0.4808    -3.7866 F       
  53 F53            1.0798    -0.6782    -4.4494 F       
  54 H54            0.6103    -1.6469     2.6070 H       
  55 H55            0.2796     0.7366     3.2330 H       
  56 H56            0.5395     2.4811     1.5190 H       
  57 H57            0.7662    -2.3212    -1.9453 H       
  58 H58            0.5026    -3.9740    -1.3396 H       
  59 H59           -3.4814    -2.0276    -0.5410 H       
  60 H60           -3.6504    -1.7412    -2.2922 H       
  61 H61           -4.0607    -4.3895    -0.8283 H       
  62 H62           -5.3218    -3.3913    -1.5924 H       
  63 H63           -4.2127    -3.7013    -3.7985 H       
  64 H64           -2.3608    -5.5397    -2.2143 H       
  65 H65           -2.3843    -5.3790    -3.9875 H       
  66 H66           -1.7736    -3.0084    -3.8266 H       
  67 H67           -0.5993    -3.9704    -2.8924 H       
  68 H68           -4.7518    -6.3061    -2.3010 H       
  69 H69           -6.6013    -4.6880    -2.0858 H       
  70 H70           -6.5869    -4.4161    -3.8456 H       
  71 H71           -7.1519    -7.0727    -2.4516 H       
  72 H72           -8.3646    -6.0221    -3.2220 H       
  73 H73           -5.4986    -8.1907    -3.8057 H       
  74 H74           -5.4969    -7.9614    -5.5706 H       
  75 H75           -4.8492    -5.5912    -5.2687 H       
  76 H76           -3.6684    -6.6714    -4.4880 H       
  77 H77           -7.8162    -8.8942    -4.1580 H       
  78 H78           -9.0189    -7.6882    -4.6749 H       
  79 H79            3.2895    -1.5630    -1.7254 H       
  80 H80            4.7442    -5.0636     1.4437 H       
  81 H81            3.6841    -7.7344     2.3281 H       
  82 H82            3.1431    -9.8946     1.2805 H       
  83 H83           -0.8272    -8.5399     0.5154 H       
  84 H84           -2.4273    -5.6137     1.1622 H       
  85 H85           -1.6684    -6.6993    -0.0269 H       
  86 H86           -2.1898    -7.3341     1.5521 H       
  87 H87           -8.5542    -9.3152    -6.4875 H       
  88 H88           -8.0309    -7.6777    -6.9492 H       
  89 H89           -6.8282    -8.8838    -6.4323 H       
  90 H90            0.5951     1.1561    -2.6450 H       
  91 H91            2.2898     1.4212    -2.1697 H       
  92 H92            2.1659     1.0428    -4.5926 H       
@<TRIPOS>BOND
   1    1    2 ar
   2    1    6 ar
   3    2    3 ar
   4    2   49 1
   5    3    4 ar
   6    3    7 1
   7    4    5 ar
   8    4   54 1
   9    5    6 ar
  10    5   55 1
  11    6   56 1
  12    7    8 1
  13    7    9 1
  14    7   27 1
  15    8   25 2
  16    8   26 am
  17    9   10 1
  18    9   57 1
  19    9   58 1
  20   10   11 am
  21   10   12 2
  22   11   13 1
  23   11   17 1
  24   13   14 1
  25   13   59 1
  26   13   60 1
  27   14   15 1
  28   14   61 1
  29   14   62 1
  30   15   16 1
  31   15   18 1
  32   15   63 1
  33   16   17 1
  34   16   64 1
  35   16   65 1
  36   17   66 1
  37   17   67 1
  38   18   19 1
  39   18   23 1
  40   18   68 1
  41   19   20 1
  42   19   69 1
  43   19   70 1
  44   20   21 1
  45   20   71 1
  46   20   72 1
  47   21   22 1
  48   21   24 1
  49   22   23 1
  50   22   73 1
  51   22   74 1
  52   23   75 1
  53   23   76 1
  54   24   43 1
  55   24   77 1
  56   24   78 1
  57   26   46 am
  58   26   28 1
  59   27   28 ar
  60   27   29 ar
  61   28   32 ar
  62   29   30 ar
  63   29   79 1
  64   30   31 ar
  65   30   44 1
  66   31   32 ar
  67   31   33 1
  68   32   80 1
  69   34   35 ar
  70   34   36 ar
  71   34   46 1
  72   35   41 1
  73   35   39 ar
  74   36   37 ar
  75   36   81 1
  76   37   38 ar
  77   37   82 1
  78   38   39 ar
  79   38   40 1
  80   39   83 1
  81   41   42 1
  82   42   84 1
  83   42   85 1
  84   42   86 1
  85   43   87 1
  86   43   88 1
  87   43   89 1
  88   44   45 3
  89   46   47 2
  90   46   48 2
  91   49   50 1
  92   50   51 1
  93   50   90 1
  94   50   91 1
  95   51   52 1
  96   51   53 1
  97   51   92 1

#	End of record

