#	Name: ASD04882006
#	Creating user name:	WinNT
#	Creation time:	15. 06. 2019 20:53

#	Modifying user name:	WinNT
#	Modification time:	15. 06. 2019 20:53

#	Program:	/corina/corina34_cracker 3.40 0067  02.08.2006

@<TRIPOS>MOLECULE
ASD04882006
  84   87    0    0    0
SMALL
NO_CHARGES


@<TRIPOS>ATOM
   1 C1            -1.1103     1.9689     1.4691 C.ar    
   2 C2            -1.0866     0.5956     1.3105 C.ar    
   3 C3             0.1203    -0.0788     1.2746 C.ar    
   4 C4             1.3062     0.6178     1.3972 C.ar    
   5 C5             1.2860     1.9978     1.5567 C.ar    
   6 C6             0.0723     2.6720     1.5923 C.ar    
   7 C7             0.0455     4.1688     1.7651 C.3     
   8 N8             2.4837     2.7055     1.6815 N.3     
   9 C9             2.7059     3.5741     0.5171 C.3     
  10 C10            3.9841     4.3891     0.7285 C.3     
  11 N11            5.1180     3.4750     0.9241 N.3     
  12 C12            4.8958     2.6064     2.0884 C.3     
  13 C13            3.6177     1.7914     1.8771 C.3     
  14 C14            6.3120     4.1805     1.0485 C.ar    
  15 C15            6.9975     4.1769     2.2576 C.ar    
  16 C16            8.1790     4.8736     2.3850 C.ar    
  17 C17            8.6919     5.5863     1.2980 C.ar    
  18 C18            8.0042     5.5914     0.0808 C.ar    
  19 C19            6.8225     4.8868    -0.0445 C.ar    
  20 N20            6.1300     4.8894    -1.2633 N.am    
  21 C21            6.2652     5.9269    -2.1129 C.2     
  22 C22            5.4456     5.9778    -3.3765 C.3     
  23 O23            7.0466     6.8197    -1.8604 O.2     
  24 C24            5.7831     7.2300    -4.1440 C.2     
  25 C25            5.5094     5.7250    -7.1232 C.3     
  26 O26            6.3414     5.9349    -5.9806 O.3     
  27 C27            6.2561     7.1435    -5.3701 C.2     
  28 C28            6.7025     8.3870    -6.0951 C.3     
  29 C29            5.6491     4.2768    -7.5967 C.3     
  30 F30            5.2584     3.4107    -6.5699 F       
  31 F31            4.8344     4.0713    -8.7153 F       
  32 F32            6.9821     4.0243    -7.9379 F       
  33 C33            9.9570     6.3327     1.4348 C.2     
  34 N34           10.6190     6.3275     2.6088 N.am    
  35 O35           10.4026     6.9526     0.4884 O.2     
  36 C36           11.8753     7.0687     2.7447 C.3     
  37 C37           12.4165     6.8989     4.1657 C.3     
  38 C38           13.7286     7.6730     4.3075 C.3     
  39 N39           14.2468     7.5104     5.6682 N.am    
  40 C40           15.1569     6.4371     6.0849 C.3     
  41 C41           15.0773     6.4049     7.6273 C.3     
  42 C42           14.6501     7.8553     7.9513 C.3     
  43 C43           13.9544     8.3285     6.6939 C.2     
  44 O44           13.2322     9.3002     6.6234 O.2     
  45 H45           -2.0543     2.4931     1.4922 H       
  46 H46           -2.0127     0.0483     1.2147 H       
  47 H47            0.1352    -1.1516     1.1510 H       
  48 H48            2.2483     0.0905     1.3695 H       
  49 H49            0.1506     4.6488     0.7922 H       
  50 H50           -0.9013     4.4656     2.2163 H       
  51 H51            0.8679     4.4746     2.4119 H       
  52 H52            2.8089     2.9620    -0.3788 H       
  53 H53            1.8588     4.2501     0.4007 H       
  54 H54            4.1665     5.0128    -0.1466 H       
  55 H55            3.8707     5.0215     1.6090 H       
  56 H56            5.7430     1.9305     2.2048 H       
  57 H57            4.7928     3.2185     2.9844 H       
  58 H58            3.4352     1.1677     2.7521 H       
  59 H59            3.7310     1.1590     0.9966 H       
  60 H60            6.6027     3.6271     3.0991 H       
  61 H61            8.7092     4.8692     3.3259 H       
  62 H62            8.3982     6.1414    -0.7611 H       
  63 H63            5.5536     4.1446    -1.4952 H       
  64 H64            5.6685     5.1047    -3.9896 H       
  65 H65            4.3857     5.9822    -3.1221 H       
  66 H66            5.6370     8.1984    -3.6887 H       
  67 H67            4.4707     5.9218    -6.8574 H       
  68 H68            5.8138     6.3998    -7.9232 H       
  69 H69            5.8611     8.8090    -6.6446 H       
  70 H70            7.0678     9.1172    -5.3729 H       
  71 H71            7.5016     8.1341    -6.7920 H       
  72 H72           10.2635     5.8329     3.3638 H       
  73 H73           12.6032     6.6840     2.0303 H       
  74 H74           11.6966     8.1258     2.5478 H       
  75 H75           11.6887     7.2835     4.8801 H       
  76 H76           12.5952     5.8418     4.3625 H       
  77 H77           14.4565     7.2883     3.5932 H       
  78 H78           13.5499     8.7301     4.1107 H       
  79 H79           14.8302     5.4834     5.6704 H       
  80 H80           16.1746     6.6597     5.7643 H       
  81 H81           14.3247     5.6921     7.9643 H       
  82 H82           16.0501     6.1782     8.0635 H       
  83 H83           13.9647     7.8709     8.7987 H       
  84 H84           15.5241     8.4740     8.1549 H       
@<TRIPOS>BOND
   1    1    2 ar
   2    1    6 ar
   3    1   45 1
   4    2    3 ar
   5    2   46 1
   6    3    4 ar
   7    3   47 1
   8    4    5 ar
   9    4   48 1
  10    5    6 ar
  11    5    8 1
  12    6    7 1
  13    7   49 1
  14    7   50 1
  15    7   51 1
  16    8    9 1
  17    8   13 1
  18    9   10 1
  19    9   52 1
  20    9   53 1
  21   10   11 1
  22   10   54 1
  23   10   55 1
  24   11   12 1
  25   11   14 1
  26   12   13 1
  27   12   56 1
  28   12   57 1
  29   13   58 1
  30   13   59 1
  31   14   15 ar
  32   14   19 ar
  33   15   16 ar
  34   15   60 1
  35   16   17 ar
  36   16   61 1
  37   17   18 ar
  38   17   33 1
  39   18   19 ar
  40   18   62 1
  41   19   20 1
  42   20   21 am
  43   20   63 1
  44   21   22 1
  45   21   23 2
  46   22   24 1
  47   22   64 1
  48   22   65 1
  49   24   27 2
  50   24   66 1
  51   25   26 1
  52   25   29 1
  53   25   67 1
  54   25   68 1
  55   26   27 1
  56   27   28 1
  57   28   69 1
  58   28   70 1
  59   28   71 1
  60   29   30 1
  61   29   31 1
  62   29   32 1
  63   33   34 am
  64   33   35 2
  65   34   36 1
  66   34   72 1
  67   36   37 1
  68   36   73 1
  69   36   74 1
  70   37   38 1
  71   37   75 1
  72   37   76 1
  73   38   39 1
  74   38   77 1
  75   38   78 1
  76   39   40 1
  77   39   43 am
  78   40   41 1
  79   40   79 1
  80   40   80 1
  81   41   42 1
  82   41   81 1
  83   41   82 1
  84   42   43 1
  85   42   83 1
  86   42   84 1
  87   43   44 2

#	End of record

