#	Name: ASD03090051
#	Creating user name:	WinNT
#	Creation time:	15. 06. 2019 20:28

#	Modifying user name:	WinNT
#	Modification time:	15. 06. 2019 20:28

#	Program:	/corina/corina34_cracker 3.40 0067  02.08.2006

@<TRIPOS>MOLECULE
ASD03090051
  37   39    0    0    0
SMALL
NO_CHARGES


@<TRIPOS>ATOM
   1 N1            -0.0162     1.3436     0.0094 N.am    
   2 C2            -0.2171     0.1142    -0.5051 C.2     
   3 O3             0.6694    -0.4358    -1.1296 O.2     
   4 N4            -1.4007    -0.5055    -0.3275 N.am    
   5 S5            -3.0486    -2.6908    -0.7210 S.3     
   6 C6            -1.6080    -1.7740    -0.8585 C.2     
   7 N7            -0.7416    -2.4599    -1.5412 N.2     
   8 N8            -1.0911    -3.6009    -1.9534 N.2     
   9 C9            -2.2917    -3.9827    -1.6535 C.2     
  10 C10           -2.9278    -5.2951    -2.0330 C.3     
  11 F11           -1.9820    -6.1044    -2.6716 F       
  12 F12           -3.3907    -5.9394    -0.8807 F       
  13 F13           -4.0011    -5.0600    -2.8989 F       
  14 C14            1.2490     1.9375    -0.0702 C.ar    
  15 C15            1.3650     3.3257    -0.2233 C.ar    
  16 C16            2.6292     3.9088    -0.3018 C.ar    
  17 C17            3.7608     3.1143    -0.2282 C.ar    
  18 C18            3.6396     1.7398    -0.0771 C.ar    
  19 C19            2.3900     1.1549     0.0077 C.ar    
  20 C20            0.1531     4.1677    -0.3016 C.2     
  21 C21           -0.0711     5.2791     0.4277 C.2     
  22 C22           -1.2790     5.8983     0.1785 C.2     
  23 C23           -2.0398     5.3038    -0.7447 C.2     
  24 S24           -1.2170     3.8792    -1.3661 S.3     
  25 O25            4.9941     3.6819    -0.3047 O.3     
  26 C26            6.1186     2.8040    -0.2219 C.3     
  27 H27           -0.7492     1.8184     0.4314 H       
  28 H28           -2.1080    -0.0667     0.1707 H       
  29 H29            2.7255     4.9780    -0.4201 H       
  30 H30            4.5257     1.1249    -0.0210 H       
  31 H31            2.3027     0.0854     0.1301 H       
  32 H32            0.6383     5.6551     1.1501 H       
  33 H33           -1.5866     6.7971     0.6922 H       
  34 H34           -3.0119     5.6488    -1.0646 H       
  35 H35            6.0979     2.2759     0.7314 H       
  36 H36            6.0771     2.0826    -1.0379 H       
  37 H37            7.0385     3.3840    -0.2960 H       
@<TRIPOS>BOND
   1    1    2 am
   2    1   14 1
   3    1   27 1
   4    2    3 2
   5    2    4 am
   6    4    6 1
   7    4   28 1
   8    5    6 1
   9    5    9 1
  10    6    7 2
  11    7    8 1
  12    8    9 2
  13    9   10 1
  14   10   11 1
  15   10   12 1
  16   10   13 1
  17   14   15 ar
  18   14   19 ar
  19   15   16 ar
  20   15   20 1
  21   16   17 ar
  22   16   29 1
  23   17   18 ar
  24   17   25 1
  25   18   19 ar
  26   18   30 1
  27   19   31 1
  28   20   21 2
  29   20   24 1
  30   21   22 1
  31   21   32 1
  32   22   23 2
  33   22   33 1
  34   23   24 1
  35   23   34 1
  36   25   26 1
  37   26   35 1
  38   26   36 1
  39   26   37 1

#	End of record

