#	Name: ASD07301291
#	Creating user name:	WinNT
#	Creation time:	15. 06. 2019 21:11

#	Modifying user name:	WinNT
#	Modification time:	15. 06. 2019 21:11

#	Program:	/corina/corina34_cracker 3.40 0067  02.08.2006

@<TRIPOS>MOLECULE
ASD07301291
  40   41    0    0    0
SMALL
NO_CHARGES


@<TRIPOS>ATOM
   1 C1            -0.0511     1.5205    -0.0641 C.3     
   2 C2            -0.0361     0.0137    -0.0778 C.2     
   3 C3             1.2351    -0.7044    -0.1748 C.2     
   4 C4             1.2497    -2.1675    -0.1881 C.2     
   5 C5             1.2910    -2.9087    -1.4995 C.3     
   6 O6            -1.0784    -0.6043    -0.0084 O.2     
   7 O7             1.2285    -2.7841     0.8571 O.2     
   8 N8             2.3725    -0.0301    -0.2506 N.2     
   9 N9             3.4980    -0.6603    -0.2378 N.pl3   
  10 C10            4.6964     0.0530    -0.2121 C.ar    
  11 C11            5.9162    -0.6225    -0.2985 C.ar    
  12 C12            7.1037     0.0942    -0.2728 C.ar    
  13 C13            7.0776     1.4716    -0.1614 C.ar    
  14 C14            5.8699     2.1407    -0.0753 C.ar    
  15 C15            4.6812     1.4374    -0.1062 C.ar    
  16 N16            5.9401    -2.0144    -0.4101 N.3     
  17 C17            5.4506    -2.6501     0.8218 C.3     
  18 C18            5.4372    -4.1696     0.6350 C.3     
  19 O19            6.7502    -4.6130     0.2818 O.3     
  20 C20            7.2579    -4.0143    -0.9137 C.3     
  21 C21            7.2897    -2.4933    -0.7426 C.3     
  22 H22            0.9703     1.8947    -0.1341 H       
  23 H23           -0.6308     1.8858    -0.9119 H       
  24 H24           -0.5037     1.8710     0.8635 H       
  25 H25            1.2159    -2.1970    -2.3217 H       
  26 H26            2.2301    -3.4565    -1.5778 H       
  27 H27            0.4569    -3.6088    -1.5476 H       
  28 H28            3.5110    -1.6301    -0.2460 H       
  29 H29            8.0488    -0.4243    -0.3394 H       
  30 H30            8.0033     2.0274    -0.1412 H       
  31 H31            5.8562     3.2171     0.0123 H       
  32 H32            3.7403     1.9639    -0.0433 H       
  33 H33            6.1086    -2.3912     1.6513 H       
  34 H34            4.4404    -2.3008     1.0351 H       
  35 H35            5.1294    -4.6480     1.5648 H       
  36 H36            4.7384    -4.4326    -0.1590 H       
  37 H37            8.2668    -4.3804    -1.1040 H       
  38 H38            6.6119    -4.2728    -1.7528 H       
  39 H39            7.6219    -2.0294    -1.6713 H       
  40 H40            7.9771    -2.2318     0.0619 H       
@<TRIPOS>BOND
   1    1    2 1
   2    1   22 1
   3    1   23 1
   4    1   24 1
   5    2    3 1
   6    2    6 2
   7    3    4 1
   8    3    8 2
   9    4    5 1
  10    4    7 2
  11    5   25 1
  12    5   26 1
  13    5   27 1
  14    8    9 1
  15    9   10 1
  16    9   28 1
  17   10   11 ar
  18   10   15 ar
  19   11   12 ar
  20   11   16 1
  21   12   13 ar
  22   12   29 1
  23   13   14 ar
  24   13   30 1
  25   14   15 ar
  26   14   31 1
  27   15   32 1
  28   16   17 1
  29   16   21 1
  30   17   18 1
  31   17   33 1
  32   17   34 1
  33   18   19 1
  34   18   35 1
  35   18   36 1
  36   19   20 1
  37   20   21 1
  38   20   37 1
  39   20   38 1
  40   21   39 1
  41   21   40 1

#	End of record

