#	Name: ASD01882505
#	Creating user name:	WinNT
#	Creation time:	15. 06. 2019 19:44

#	Modifying user name:	WinNT
#	Modification time:	15. 06. 2019 19:44

#	Program:	/corina/corina34_cracker 3.40 0067  02.08.2006

@<TRIPOS>MOLECULE
ASD01882505
  50   54    0    0    0
SMALL
NO_CHARGES


@<TRIPOS>ATOM
   1 C1             0.7178     1.4942     1.0695 C.2     
   2 C2             0.7761     0.0323     1.1178 C.2     
   3 C3             1.2465    -0.6462    -0.0133 C.2     
   4 C4             1.6414     0.0965    -1.1426 C.2     
   5 C5             1.5738     1.4411    -1.1493 C.2     
   6 N6             1.1222     2.1431    -0.0714 N.pl3   
   7 N7             0.4798     3.5838     1.3948 N.2     
   8 N8             0.3345     2.4203     1.9253 N.2     
   9 C9             0.9541     3.4735     0.1826 C.2     
  10 C10            0.3645    -0.6831     2.2879 C.1     
  11 N11            0.0379    -1.2507     3.2162 N.1     
  12 N12            1.3225    -2.0264    -0.0210 N.pl3   
  13 C13            2.6200    -2.7040    -0.1472 C.3     
  14 C14            2.5474    -3.6951    -1.3131 C.3     
  15 C15            1.3627    -4.6404    -1.1007 C.3     
  16 C16            0.0628    -3.8332    -1.0712 C.3     
  17 C17            0.1078    -2.8437     0.1030 C.3     
  18 C18            1.3084    -5.6385    -2.2285 C.ar    
  19 C19            0.5309    -6.7752    -2.1086 C.ar    
  20 C20            0.4812    -7.6908    -3.1431 C.ar    
  21 C21            1.2085    -7.4694    -4.2976 C.ar    
  22 C22            1.9852    -6.3323    -4.4178 C.ar    
  23 C23            2.0316    -5.4146    -3.3851 C.ar    
  24 F24            1.5185    -5.3175     0.1135 F       
  25 C25            1.2580     4.6072    -0.7627 C.3     
  26 C26            0.0162     4.9198    -1.6001 C.3     
  27 C27            0.0843     6.1229    -2.5428 C.3     
  28 C28            0.1104     4.7028    -3.1117 C.3     
  29 H29            2.0050    -0.4212    -2.0179 H       
  30 H30            1.8858     1.9783    -2.0327 H       
  31 H31            3.3995    -1.9673    -0.3419 H       
  32 H32            2.8434    -3.2404     0.7750 H       
  33 H33            2.4142    -3.1490    -2.2470 H       
  34 H34            3.4705    -4.2729    -1.3574 H       
  35 H35           -0.0470    -3.2859    -2.0074 H       
  36 H36           -0.7825    -4.5094    -0.9433 H       
  37 H37            0.1305    -3.3912     1.0453 H       
  38 H38           -0.7708    -2.1993     0.0736 H       
  39 H39           -0.0373    -6.9481    -1.2066 H       
  40 H40           -0.1257    -8.5792    -3.0491 H       
  41 H41            1.1702    -8.1851    -5.1055 H       
  42 H42            2.5537    -6.1595    -5.3197 H       
  43 H43            2.6355    -4.5243    -3.4805 H       
  44 H44            1.5425     5.4905    -0.1911 H       
  45 H45            2.0778     4.3211    -1.4215 H       
  46 H46           -0.9396     4.7102    -1.1198 H       
  47 H47           -0.8268     6.7046    -2.6831 H       
  48 H48            1.0138     6.6917    -2.5665 H       
  49 H49            1.0571     4.3374    -3.5096 H       
  50 H50           -0.7835     4.3502    -3.6262 H       
@<TRIPOS>BOND
   1    1    2 1
   2    1    6 1
   3    1    8 2
   4    2    3 2
   5    2   10 1
   6    3    4 1
   7    3   12 1
   8    4    5 2
   9    4   29 1
  10    5    6 1
  11    5   30 1
  12    6    9 1
  13    7    8 1
  14    7    9 2
  15    9   25 1
  16   10   11 3
  17   12   13 1
  18   12   17 1
  19   13   14 1
  20   13   31 1
  21   13   32 1
  22   14   15 1
  23   14   33 1
  24   14   34 1
  25   15   16 1
  26   15   18 1
  27   15   24 1
  28   16   17 1
  29   16   35 1
  30   16   36 1
  31   17   37 1
  32   17   38 1
  33   18   19 ar
  34   18   23 ar
  35   19   20 ar
  36   19   39 1
  37   20   21 ar
  38   20   40 1
  39   21   22 ar
  40   21   41 1
  41   22   23 ar
  42   22   42 1
  43   23   43 1
  44   25   26 1
  45   25   44 1
  46   25   45 1
  47   26   27 1
  48   26   28 1
  49   26   46 1
  50   27   28 1
  51   27   47 1
  52   27   48 1
  53   28   49 1
  54   28   50 1

#	End of record

