#	Name: ASD00310005
#	Creating user name:	WinNT
#	Creation time:	15. 06. 2019 18:33

#	Modifying user name:	WinNT
#	Modification time:	15. 06. 2019 18:33

#	Program:	/corina/corina34_cracker 3.40 0067  02.08.2006

@<TRIPOS>MOLECULE
ASD00310005
  49   53    0    0    0
SMALL
NO_CHARGES


@<TRIPOS>ATOM
   1 Cl1            0.5790     0.1622    -2.0403 Cl      
   2 C2             0.4476     1.8624    -1.7149 C.ar    
   3 C3             1.5118     2.5386    -1.1593 C.ar    
   4 C4             1.4101     3.8983    -0.8983 C.ar    
   5 N5             2.2741     4.8371    -0.3608 N.pl3   
   6 C6             1.6167     6.0325    -0.3480 C.2     
   7 N7             0.4143     5.8857    -0.8399 N.2     
   8 C8             0.2236     4.5882    -1.1993 C.ar    
   9 C9            -0.8513     3.8991    -1.7619 C.ar    
  10 C10           -0.7361     2.5408    -2.0233 C.ar    
  11 C11           -1.8764     1.8037    -2.6220 C.ar    
  12 C12           -3.1539     1.9229    -2.0657 C.ar    
  13 C13           -4.2139     1.2516    -2.6041 C.ar    
  14 C14           -4.0340     0.4370    -3.7181 C.ar    
  15 C15           -2.7528     0.3096    -4.2870 C.ar    
  16 C16           -1.6743     1.0014    -3.7366 C.ar    
  17 C17           -2.9029    -0.6030    -5.4235 C.2     
  18 C18           -4.1968    -0.9563    -5.4744 C.2     
  19 N19           -4.8879    -0.3452    -4.4640 N.pl3   
  20 C20           -6.3228    -0.4999    -4.2127 C.3     
  21 O21            2.1326     7.1976     0.1069 O.3     
  22 C22            1.3826     8.3230    -0.0272 C.ar    
  23 C23            0.3116     8.5489     0.8268 C.ar    
  24 C24           -0.4555     9.6920     0.6950 C.ar    
  25 C25           -0.1613    10.6161    -0.2861 C.ar    
  26 C26            0.9144    10.3981    -1.1497 C.ar    
  27 C27            1.6906     9.2468    -1.0121 C.ar    
  28 C28            1.2323    11.3852    -2.2019 C.2     
  29 O29            0.6313    12.4399    -2.2469 O.2     
  30 O30            2.1887    11.1157    -3.1115 O.3     
  31 C31           -1.0004    11.8601    -0.4261 C.3     
  32 H32            2.4248     2.0109    -0.9266 H       
  33 H33            3.1787     4.6750    -0.0506 H       
  34 H34           -1.7674     4.4209    -1.9964 H       
  35 H35           -3.3036     2.5523    -1.2009 H       
  36 H36           -5.1949     1.3527    -2.1639 H       
  37 H37           -0.6890     0.9075    -4.1688 H       
  38 H38           -2.1210    -0.9291    -6.0933 H       
  39 H39           -4.6285    -1.6246    -6.2048 H       
  40 H40           -6.4847    -1.3378    -3.5346 H       
  41 H41           -6.7133     0.4127    -3.7623 H       
  42 H42           -6.8382    -0.6897    -5.1542 H       
  43 H43            0.0764     7.8290     1.5968 H       
  44 H44           -1.2878     9.8616     1.3620 H       
  45 H45            2.5240     9.0726    -1.6766 H       
  46 H46            2.3613    11.7921    -3.7806 H       
  47 H47           -0.5200    12.6838     0.1019 H       
  48 H48           -1.1004    12.1140    -1.4814 H       
  49 H49           -1.9878    11.6821    -0.0001 H       
@<TRIPOS>BOND
   1    1    2 1
   2    2    3 ar
   3    2   10 ar
   4    3    4 ar
   5    3   32 1
   6    4    5 1
   7    4    8 ar
   8    5    6 1
   9    5   33 1
  10    6    7 2
  11    6   21 1
  12    7    8 1
  13    8    9 ar
  14    9   10 ar
  15    9   34 1
  16   10   11 1
  17   11   12 ar
  18   11   16 ar
  19   12   13 ar
  20   12   35 1
  21   13   14 ar
  22   13   36 1
  23   14   15 ar
  24   14   19 1
  25   15   16 ar
  26   15   17 1
  27   16   37 1
  28   17   18 2
  29   17   38 1
  30   18   19 1
  31   18   39 1
  32   19   20 1
  33   20   40 1
  34   20   41 1
  35   20   42 1
  36   21   22 1
  37   22   23 ar
  38   22   27 ar
  39   23   24 ar
  40   23   43 1
  41   24   25 ar
  42   24   44 1
  43   25   26 ar
  44   25   31 1
  45   26   27 ar
  46   26   28 1
  47   27   45 1
  48   28   29 2
  49   28   30 1
  50   30   46 1
  51   31   47 1
  52   31   48 1
  53   31   49 1

#	End of record

