#	Name: ASD08170079
#	Creating user name:	WinNT
#	Creation time:	15. 06. 2019 21:17

#	Modifying user name:	WinNT
#	Modification time:	15. 06. 2019 21:17

#	Program:	/corina/corina34_cracker 3.40 0067  02.08.2006

@<TRIPOS>MOLECULE
ASD08170079
  73   76    0    0    0
SMALL
NO_CHARGES


@<TRIPOS>ATOM
   1 N1            -1.9721     3.2930     0.9538 N.2     
   2 N2            -1.9732     2.0632     1.2391 N.2     
   3 C3            -0.8242     3.8982     0.8984 C.2     
   4 S4             0.4113     2.7655     1.2527 S.3     
   5 C5            -0.8184     1.5165     1.4514 C.2     
   6 C6            -0.5699     0.0730     1.8057 C.3     
   7 C7            -0.3812    -0.7415     0.5243 C.3     
   8 C8             0.3764    -4.7645    -0.4803 C.3     
   9 C9             0.5388    -5.4210    -1.8271 C.2     
  10 N10            1.6500    -5.5689    -2.4759 N.2     
  11 S11           -0.7493    -6.1329    -2.7995 S.3     
  12 C12            0.4070    -6.5443    -3.9948 C.2     
  13 N13            1.5777    -6.1483    -3.5952 N.2     
  14 N14            0.1375    -7.1987    -5.1920 N.am    
  15 C15            1.1387    -7.4668    -6.0536 C.2     
  16 O16            2.2745    -7.1373    -5.7849 O.2     
  17 C17            0.8468    -8.1759    -7.3509 C.3     
  18 N18           -0.6302     5.2428     0.6008 N.am    
  19 C19           -1.6889     6.0347     0.3392 C.2     
  20 C20           -1.4787     7.4917     0.0167 C.3     
  21 O21           -2.8109     5.5747     0.3633 O.2     
  22 C22            0.1133    -3.2693    -0.6702 C.3     
  23 C23            0.3008    -7.1895    -8.3508 C.ar    
  24 S24           -0.0822    -2.4791     0.9508 S.3     
  25 C25           -1.2650     8.2630     1.2936 C.ar    
  26 C26            0.0128     8.6256     1.6765 C.ar    
  27 C27            1.1460    -6.2763    -8.9530 C.ar    
  28 C28           -2.3473     8.6129     2.0791 C.ar    
  29 C29           -2.1513     9.3204     3.2504 C.ar    
  30 C30           -0.8730     9.6777     3.6364 C.ar    
  31 C31            0.2088     9.3331     2.8477 C.ar    
  32 C32            0.6452    -5.3714    -9.8702 C.ar    
  33 C33           -0.7007    -5.3800   -10.1855 C.ar    
  34 C34           -1.5457    -6.2937    -9.5839 C.ar    
  35 C35           -1.0441    -7.2015    -8.6700 C.ar    
  36 N36            2.0813    -8.7675    -7.8726 N.am    
  37 C37            2.0235    -9.8465    -8.6781 C.2     
  38 C38            3.2942   -10.5230    -9.1239 C.3     
  39 O39            0.9488   -10.2731    -9.0443 O.2     
  40 N40           -2.6586     8.0134    -0.6773 N.am    
  41 C41           -2.5394     9.0647    -1.5122 C.2     
  42 C42           -3.7288     9.5307    -2.3117 C.3     
  43 O43           -1.4748     9.6356    -1.6202 O.2     
  44 H44            0.3282    -0.0012     2.4190 H       
  45 H45           -1.4227    -0.3167     2.3616 H       
  46 H46           -1.2793    -0.6673    -0.0889 H       
  47 H47            0.4716    -0.3518    -0.0316 H       
  48 H48           -0.4640    -5.2174     0.0457 H       
  49 H49            1.2869    -4.9020     0.1030 H       
  50 H50           -0.7709    -7.4623    -5.4069 H       
  51 H51            0.1120    -8.9622    -7.1778 H       
  52 H52            0.2672     5.6107     0.5815 H       
  53 H53           -0.6033     7.5994    -0.6237 H       
  54 H54            0.9537    -2.8164    -1.1963 H       
  55 H55           -0.7972    -3.1319    -1.2536 H       
  56 H56            0.8580     8.3558     1.0607 H       
  57 H57            2.1975    -6.2696    -8.7067 H       
  58 H58           -3.3461     8.3337     1.7776 H       
  59 H59           -2.9970     9.5943     3.8637 H       
  60 H60           -0.7199    10.2308     4.5513 H       
  61 H61            1.2076     9.6123     3.1493 H       
  62 H62            1.3054    -4.6575   -10.3402 H       
  63 H63           -1.0921    -4.6725   -10.9016 H       
  64 H64           -2.5973    -6.3002    -9.8300 H       
  65 H65           -1.7043    -7.9154    -8.2000 H       
  66 H66            2.9403    -8.3827    -7.6382 H       
  67 H67            4.1518   -10.0024    -8.6976 H       
  68 H68            3.2927   -11.5589    -8.7847 H       
  69 H69            3.3574   -10.4969   -10.2117 H       
  70 H70           -3.5258     7.6022    -0.5360 H       
  71 H71           -4.2793    10.2790    -1.7414 H       
  72 H72           -3.3873     9.9678    -3.2499 H       
  73 H73           -4.3803     8.6824    -2.5218 H       
@<TRIPOS>BOND
   1    1    2 1
   2    1    3 2
   3    2    5 2
   4    3    4 1
   5    3   18 1
   6    4    5 1
   7    5    6 1
   8    6    7 1
   9    6   44 1
  10    6   45 1
  11    7   24 1
  12    7   46 1
  13    7   47 1
  14    8    9 1
  15    8   22 1
  16    8   48 1
  17    8   49 1
  18    9   10 2
  19    9   11 1
  20   10   13 1
  21   11   12 1
  22   12   13 2
  23   12   14 1
  24   14   15 am
  25   14   50 1
  26   15   16 2
  27   15   17 1
  28   17   23 1
  29   17   36 1
  30   17   51 1
  31   18   19 am
  32   18   52 1
  33   19   21 2
  34   19   20 1
  35   20   25 1
  36   20   40 1
  37   20   53 1
  38   22   24 1
  39   22   54 1
  40   22   55 1
  41   23   27 ar
  42   23   35 ar
  43   25   26 ar
  44   25   28 ar
  45   26   31 ar
  46   26   56 1
  47   27   32 ar
  48   27   57 1
  49   28   29 ar
  50   28   58 1
  51   29   30 ar
  52   29   59 1
  53   30   31 ar
  54   30   60 1
  55   31   61 1
  56   32   33 ar
  57   32   62 1
  58   33   34 ar
  59   33   63 1
  60   34   35 ar
  61   34   64 1
  62   35   65 1
  63   36   37 am
  64   36   66 1
  65   37   38 1
  66   37   39 2
  67   38   67 1
  68   38   68 1
  69   38   69 1
  70   40   41 am
  71   40   70 1
  72   41   42 1
  73   41   43 2
  74   42   71 1
  75   42   72 1
  76   42   73 1

#	End of record

