#	Name: ASD01815645
#	Creating user name:	WinNT
#	Creation time:	15. 06. 2019 19:33

#	Modifying user name:	WinNT
#	Modification time:	15. 06. 2019 19:33

#	Program:	/corina/corina34_cracker 3.40 0067  02.08.2006

@<TRIPOS>MOLECULE
ASD01815645
  37   40    0    0    0
SMALL
NO_CHARGES


@<TRIPOS>ATOM
   1 C1            -0.0167     1.3820     0.0096 C.ar    
   2 C2             0.0021    -0.0041     0.0020 C.ar    
   3 C3             1.1959    -0.6932    -0.0130 C.ar    
   4 C4             2.4016     0.0019    -0.0208 C.ar    
   5 C5             2.3831     1.4075    -0.0131 C.ar    
   6 C6             1.1665     2.0939     0.0022 C.ar    
   7 N7             3.6010    -0.6771    -0.0354 N.pl3   
   8 C8             4.7870    -0.0549    -0.0429 C.2     
   9 C9             4.8957     1.3208    -0.0361 C.2     
  10 C10            3.6667     2.1313    -0.0214 C.2     
  11 O11            3.7091     3.3491    -0.0154 O.2     
  12 C12            6.2161     1.9660    -0.0443 C.2     
  13 O13            7.2243     1.2870    -0.0571 O.2     
  14 O14            6.3092     3.3109    -0.0375 O.3     
  15 C15            3.5775    -2.1419    -0.0425 C.3     
  16 C16            3.5562    -2.6371    -1.4656 C.ar    
  17 C17            4.7272    -3.3377    -3.4368 C.ar    
  18 C18            3.5106    -3.5466    -4.0816 C.ar    
  19 C19            2.3239    -3.2937    -3.4129 C.ar    
  20 F20            1.1476     3.4448     0.0096 F       
  21 C21            2.3486    -2.8392    -2.1076 C.ar    
  22 C22            4.7443    -2.8829    -2.1282 C.ar    
  23 O23            5.7376    -3.6550    -4.2980 O.3     
  24 C24            5.1258    -4.4469    -5.3333 C.3     
  25 O25            3.7588    -3.9948    -5.3468 O.3     
  26 H26           -0.9604     1.9071     0.0169 H       
  27 H27           -0.9295    -0.5505     0.0083 H       
  28 H28            1.1956    -1.7731    -0.0185 H       
  29 H29            5.6884    -0.6497    -0.0543 H       
  30 H30            7.1990     3.6894    -0.0433 H       
  31 H31            4.4663    -2.5220     0.4612 H       
  32 H32            2.6866    -2.4935     0.4780 H       
  33 H33            1.3790    -3.4545    -3.9106 H       
  34 H34            1.4225    -2.6419    -1.5881 H       
  35 H35            5.6863    -2.7199    -1.6257 H       
  36 H36            5.6023    -4.2546    -6.2946 H       
  37 H37            5.1762    -5.5070    -5.0849 H       
@<TRIPOS>BOND
   1    1    2 ar
   2    1    6 ar
   3    1   26 1
   4    2    3 ar
   5    2   27 1
   6    3    4 ar
   7    3   28 1
   8    4    5 ar
   9    4    7 1
  10    5    6 ar
  11    5   10 1
  12    6   20 1
  13    7    8 1
  14    7   15 1
  15    8    9 2
  16    8   29 1
  17    9   10 1
  18    9   12 1
  19   10   11 2
  20   12   13 2
  21   12   14 1
  22   14   30 1
  23   15   16 1
  24   15   31 1
  25   15   32 1
  26   16   22 ar
  27   16   21 ar
  28   17   18 ar
  29   17   23 1
  30   17   22 ar
  31   18   19 ar
  32   18   25 1
  33   19   21 ar
  34   19   33 1
  35   21   34 1
  36   22   35 1
  37   23   24 1
  38   24   25 1
  39   24   36 1
  40   24   37 1

#	End of record

