#	Name: ASD06140027
#	Creating user name:	WinNT
#	Creation time:	15. 06. 2019 21:05

#	Modifying user name:	WinNT
#	Modification time:	15. 06. 2019 21:05

#	Program:	/corina/corina34_cracker 3.40 0067  02.08.2006

@<TRIPOS>MOLECULE
ASD06140027
  44   47    0    0    0
SMALL
NO_CHARGES


@<TRIPOS>ATOM
   1 C1            -0.0169     1.3950     0.0097 C.ar    
   2 C2             0.0021    -0.0041     0.0020 C.ar    
   3 C3             1.1939    -0.6706    -0.0129 C.ar    
   4 C4             2.3955     0.0452    -0.0201 C.ar    
   5 C5             2.3769     1.4437    -0.0124 C.ar    
   6 C6             1.1854     2.1107     0.0021 C.ar    
   7 C7            -1.3030     2.1146     0.0197 C.2     
   8 O8            -2.5226     1.5448     0.0228 O.3     
   9 C9            -3.4671     2.5075     0.0329 C.2     
  10 C10           -2.8325     3.7370     0.0363 C.2     
  11 C11           -1.4589     3.4829     0.0334 C.2     
  12 C12            3.6827    -0.6750    -0.0353 C.2     
  13 C13           -4.8637     2.2969     0.0388 C.2     
  14 C14           -5.3620     1.0270     0.0350 C.2     
  15 N15           -6.9614    -0.6979     0.0345 N.am    
  16 C16           -5.9067    -1.5214     0.0274 C.2     
  17 S17           -4.4581    -0.5004     0.0307 S.3     
  18 C18           -6.7662     0.6101     0.0400 C.2     
  19 C19           -8.3220    -1.2411     0.0333 C.3     
  20 C20           -8.7863    -1.4358     1.4537 C.ar    
  21 O21           -7.6854     1.4086     0.0490 O.2     
  22 C22           -8.9763    -2.8136     3.4027 C.ar    
  23 C23           -8.5504    -2.6350     2.0998 C.ar    
  24 C24           -9.4431    -0.4134     2.1125 C.ar    
  25 C25           -9.8691    -0.5920     3.4154 C.ar    
  26 C26           -9.6386    -1.7933     4.0594 C.ar    
  27 O27            4.8405     0.0144    -0.0422 O.3     
  28 O28            3.6991    -1.8899    -0.0416 O.2     
  29 S29           -5.9487    -3.2329     0.0196 S.2     
  30 H30           -0.9257    -0.5568     0.0083 H       
  31 H31            1.2086    -1.7504    -0.0189 H       
  32 H32            3.3049     1.9961    -0.0180 H       
  33 H33            1.1710     3.1906     0.0077 H       
  34 H34           -3.3078     4.7068     0.0434 H       
  35 H35           -0.6692     4.2195     0.0384 H       
  36 H36           -5.5371     3.1412     0.0464 H       
  37 H37           -8.9902    -0.5462    -0.4753 H       
  38 H38           -8.3303    -2.1993    -0.4862 H       
  39 H39           -8.7923    -3.7506     3.9073 H       
  40 H40           -8.0337    -3.4324     1.5864 H       
  41 H41           -9.6232     0.5252     1.6094 H       
  42 H42          -10.3816     0.2071     3.9304 H       
  43 H43           -9.9714    -1.9328     5.0773 H       
  44 H44            5.6585    -0.5012    -0.0521 H       
@<TRIPOS>BOND
   1    1    2 ar
   2    1    6 ar
   3    1    7 1
   4    2    3 ar
   5    2   30 1
   6    3    4 ar
   7    3   31 1
   8    4    5 ar
   9    4   12 1
  10    5    6 ar
  11    5   32 1
  12    6   33 1
  13    7    8 1
  14    7   11 2
  15    8    9 1
  16    9   10 2
  17    9   13 1
  18   10   11 1
  19   10   34 1
  20   11   35 1
  21   12   27 1
  22   12   28 2
  23   13   14 2
  24   13   36 1
  25   14   18 1
  26   14   17 1
  27   15   16 am
  28   15   18 am
  29   15   19 1
  30   16   17 1
  31   16   29 2
  32   18   21 2
  33   19   20 1
  34   19   37 1
  35   19   38 1
  36   20   24 ar
  37   20   23 ar
  38   22   23 ar
  39   22   26 ar
  40   22   39 1
  41   23   40 1
  42   24   25 ar
  43   24   41 1
  44   25   26 ar
  45   25   42 1
  46   26   43 1
  47   27   44 1

#	End of record

