#	Name: ASD01001291
#	Creating user name:	WinNT
#	Creation time:	15. 06. 2019 18:55

#	Modifying user name:	WinNT
#	Modification time:	15. 06. 2019 18:55

#	Program:	/corina/corina34_cracker 3.40 0067  02.08.2006

@<TRIPOS>MOLECULE
ASD01001291
  33   35    0    0    0
SMALL
NO_CHARGES


@<TRIPOS>ATOM
   1 C1            -0.0167     1.3790     0.0096 C.ar    
   2 C2             0.0021    -0.0041     0.0020 C.ar    
   3 C3             1.2063    -0.6846    -0.0127 C.ar    
   4 C4             2.3966     0.0140    -0.0199 C.ar    
   5 C5             2.3837     1.4075    -0.0128 C.ar    
   6 C6             1.1675     2.0878     0.0021 C.ar    
   7 C7             3.6598     2.1639    -0.0200 C.ar    
   8 C8             3.6453     3.5576    -0.0128 C.ar    
   9 C9             4.8326     4.2581    -0.0189 C.ar    
  10 C10            6.0438     3.5764    -0.0320 C.ar    
  11 C11            6.0604     2.1865    -0.0390 C.ar    
  12 C12            4.8758     1.4818    -0.0281 C.ar    
  13 C13            4.8207     5.7649    -0.0108 C.3     
  14 C14            6.0180     6.2808     0.7883 C.3     
  15 C15            7.2729     5.5824     0.3384 C.2     
  16 N16            7.2450     4.2909    -0.0378 N.am    
  17 O17            8.3217     6.1911     0.3142 O.2     
  18 C18           -1.2943    -0.7724     0.0103 C.3     
  19 F19           -1.7081    -1.0031    -1.3060 F       
  20 F20           -1.1068    -1.9964     0.6615 F       
  21 F21           -2.2715    -0.0311     0.6832 F       
  22 H22           -0.9598     1.9053     0.0170 H       
  23 H23            1.2151    -1.7645    -0.0183 H       
  24 H24            3.3362    -0.5183    -0.0307 H       
  25 H25            1.1517     3.1677     0.0077 H       
  26 H26            2.7047     4.0883    -0.0029 H       
  27 H27            7.0023     1.6582    -0.0497 H       
  28 H28            4.8894     0.4019    -0.0335 H       
  29 H29            4.8811     6.1341    -1.0345 H       
  30 H30            3.8978     6.1184     0.4489 H       
  31 H31            6.1240     7.3539     0.6295 H       
  32 H32            5.8562     6.0872     1.8487 H       
  33 H33            8.0646     3.8524    -0.3149 H       
@<TRIPOS>BOND
   1    1    2 ar
   2    1    6 ar
   3    1   22 1
   4    2    3 ar
   5    2   18 1
   6    3    4 ar
   7    3   23 1
   8    4    5 ar
   9    4   24 1
  10    5    6 ar
  11    5    7 1
  12    6   25 1
  13    7    8 ar
  14    7   12 ar
  15    8    9 ar
  16    8   26 1
  17    9   10 ar
  18    9   13 1
  19   10   11 ar
  20   10   16 1
  21   11   12 ar
  22   11   27 1
  23   12   28 1
  24   13   14 1
  25   13   29 1
  26   13   30 1
  27   14   15 1
  28   14   31 1
  29   14   32 1
  30   15   16 am
  31   15   17 2
  32   16   33 1
  33   18   19 1
  34   18   20 1
  35   18   21 1

#	End of record

