#	Name: ASD02508462
#	Creating user name:	WinNT
#	Creation time:	15. 06. 2019 20:24

#	Modifying user name:	WinNT
#	Modification time:	15. 06. 2019 20:24

#	Program:	/corina/corina34_cracker 3.40 0067  02.08.2006

@<TRIPOS>MOLECULE
ASD02508462
  33   35    0    0    0
SMALL
NO_CHARGES


@<TRIPOS>ATOM
   1 C1            -0.0323     1.3849    -0.0204 C.2     
   2 C2             0.0218    -0.0219    -0.1004 C.2     
   3 C3             1.3194    -0.3815    -0.0425 C.2     
   4 N4             2.0722     0.7540     0.0707 N.pl3   
   5 C5             1.2341     1.8340     0.0834 C.2     
   6 C6             3.4634     0.8025     0.1588 C.ar    
   7 N7             4.1088     0.0606     1.0521 N.ar    
   8 C8             4.1980     1.6259    -0.6928 C.ar    
   9 C9             5.5751     1.6393    -0.5673 C.ar    
  10 N10            6.1476     0.8754     0.3509 N.ar    
  11 C11            5.4240     0.1031     1.1385 C.ar    
  12 S12            1.9384    -2.0301    -0.1018 S.o2    
  13 N13            1.9630    -2.4876    -1.6931 N.am    
  14 C14            2.8097    -1.8360    -2.5948 C.ar    
  15 C15            3.5624    -2.5739    -3.4987 C.ar    
  16 C16            4.4000    -1.9279    -4.3904 C.ar    
  17 C17            4.4883    -0.5446    -4.3815 C.ar    
  18 C18            3.7379     0.1932    -3.4794 C.ar    
  19 C19            2.8945    -0.4500    -2.5911 C.ar    
  20 O20            3.2944    -1.9649     0.3180 O.2     
  21 O21            0.9660    -2.8470     0.5356 O.2     
  22 Cl22           6.2243    -0.8783     2.3260 Cl      
  23 F23            5.1325    -2.6456    -5.2700 F       
  24 F24            3.8255     1.5413    -3.4717 F       
  25 F25            5.3070     0.0850    -5.2524 F       
  26 H26           -0.9253     1.9919    -0.0430 H       
  27 H27           -0.8224    -0.6893    -0.1914 H       
  28 H28            1.5349     2.8682     0.1625 H       
  29 H29            3.7039     2.2381    -1.4327 H       
  30 H30            6.1765     2.2648    -1.2103 H       
  31 H31            1.3899    -3.2076    -1.9997 H       
  32 H32            3.4943    -3.6518    -3.5054 H       
  33 H33            2.3096     0.1251    -1.8885 H       
@<TRIPOS>BOND
   1    1    2 1
   2    1    5 2
   3    1   26 1
   4    2    3 2
   5    2   27 1
   6    3    4 1
   7    3   12 1
   8    4    5 1
   9    4    6 1
  10    5   28 1
  11    6    7 ar
  12    6    8 ar
  13    7   11 ar
  14    8    9 ar
  15    8   29 1
  16    9   10 ar
  17    9   30 1
  18   10   11 ar
  19   11   22 1
  20   12   13 am
  21   12   20 2
  22   12   21 2
  23   13   14 1
  24   13   31 1
  25   14   15 ar
  26   14   19 ar
  27   15   16 ar
  28   15   32 1
  29   16   17 ar
  30   16   23 1
  31   17   18 ar
  32   17   25 1
  33   18   19 ar
  34   18   24 1
  35   19   33 1

#	End of record

