#	Name: ASD01209298
#	Creating user name:	WinNT
#	Creation time:	15. 06. 2019 19:11

#	Modifying user name:	WinNT
#	Modification time:	15. 06. 2019 19:11

#	Program:	/corina/corina34_cracker 3.40 0067  02.08.2006

@<TRIPOS>MOLECULE
ASD01209298
  61   63    0    0    0
SMALL
NO_CHARGES


@<TRIPOS>ATOM
   1 C1            -0.0849     1.4449     0.3573 C.3     
   2 C2            -0.4130     0.0638     0.8632 C.ar    
   3 C3            -1.1535    -0.8015     0.0797 C.ar    
   4 C4            -1.4546    -2.0683     0.5439 C.ar    
   5 C5            -1.0148    -2.4700     1.7913 C.ar    
   6 C6            -0.2735    -1.6050     2.5744 C.ar    
   7 C7             0.0312    -0.3397     2.1085 C.ar    
   8 S8            -1.3995    -4.0843     2.3834 S.o2    
   9 O9            -1.3752    -3.9537     3.7981 O.2     
  10 O10           -2.5959    -4.4322     1.7002 O.2     
  11 C11           -0.0194    -5.1155     1.8155 C.3     
  12 C12            1.4112     1.6120     0.2875 C.2     
  13 O13            2.1391     0.7471     0.7267 O.2     
  14 N14            1.9403     2.7226    -0.2631 N.am    
  15 C15            3.3237     2.8911    -0.3001 C.ar    
  16 P16            7.8096     3.5483    -0.4337 P.3     
  17 O17            8.4075     3.2096     0.8771 O.2     
  18 O18            8.0872     5.0990    -0.7656 O.3     
  19 O19            8.4691     2.6280    -1.5783 O.3     
  20 C20            9.8787     2.5543    -1.8015 C.3     
  21 C21           -0.6708     2.4894     1.3094 C.3     
  22 C22           -2.1954     2.3626     1.3298 C.3     
  23 C23           -2.7871     3.2906     2.4052 C.3     
  24 C24           -3.7128     4.2823     1.6707 C.3     
  25 C25           -4.0968     3.5463     0.3631 C.3     
  26 C26           -2.7821     2.8228    -0.0206 C.3     
  27 C27            4.1557     1.7852    -0.1704 C.ar    
  28 C28            9.3971     5.6701    -0.7767 C.3     
  29 C29            5.5273     1.9666    -0.2090 C.ar    
  30 C30            6.0207     3.2530    -0.3766 C.ar    
  31 C31            5.1354     4.3061    -0.4990 C.ar    
  32 N32            3.8327     4.1020    -0.4639 N.ar    
  33 H33           -0.5122     1.5788    -0.6365 H       
  34 H34           -1.4971    -0.4876    -0.8949 H       
  35 H35           -2.0337    -2.7441    -0.0680 H       
  36 H36            0.0698    -1.9187     3.5492 H       
  37 H37            0.6103     0.3360     2.7203 H       
  38 H38            0.9128    -4.7391     2.2367 H       
  39 H39           -0.1761    -6.1438     2.1413 H       
  40 H40            0.0345    -5.0833     0.7273 H       
  41 H41            1.3586     3.4047    -0.6335 H       
  42 H42           10.0807     1.8696    -2.6252 H       
  43 H43           10.2594     3.5448    -2.0507 H       
  44 H44           10.3710     2.1923    -0.8990 H       
  45 H45           -0.2792     2.3261     2.3134 H       
  46 H46           -0.3937     3.4872     0.9692 H       
  47 H47           -2.4812     1.3299     1.5294 H       
  48 H48           -3.3609     2.7082     3.1262 H       
  49 H49           -1.9882     3.8312     2.9126 H       
  50 H50           -4.6013     4.4884     2.2675 H       
  51 H51           -3.1802     5.2064     1.4461 H       
  52 H52           -4.8948     2.8265     0.5451 H       
  53 H53           -4.3860     4.2580    -0.4101 H       
  54 H54           -2.0992     3.5112    -0.5185 H       
  55 H55           -2.9914     1.9639    -0.6582 H       
  56 H56            3.7376     0.7979    -0.0409 H       
  57 H57            9.8509     5.5577     0.2079 H       
  58 H58           10.0098     5.1595    -1.5196 H       
  59 H59            9.3297     6.7289    -1.0270 H       
  60 H60            6.1984     1.1262    -0.1105 H       
  61 H61            5.5146     5.3088    -0.6297 H       
@<TRIPOS>BOND
   1    1    2 1
   2    1   12 1
   3    1   21 1
   4    1   33 1
   5    2    3 ar
   6    2    7 ar
   7    3    4 ar
   8    3   34 1
   9    4    5 ar
  10    4   35 1
  11    5    6 ar
  12    5    8 1
  13    6    7 ar
  14    6   36 1
  15    7   37 1
  16    8    9 2
  17    8   10 2
  18    8   11 1
  19   11   38 1
  20   11   39 1
  21   11   40 1
  22   12   13 2
  23   12   14 am
  24   14   15 1
  25   14   41 1
  26   15   27 ar
  27   15   32 ar
  28   16   17 2
  29   16   18 1
  30   16   19 1
  31   16   30 1
  32   18   28 1
  33   19   20 1
  34   20   42 1
  35   20   43 1
  36   20   44 1
  37   21   22 1
  38   21   45 1
  39   21   46 1
  40   22   23 1
  41   22   26 1
  42   22   47 1
  43   23   24 1
  44   23   48 1
  45   23   49 1
  46   24   25 1
  47   24   50 1
  48   24   51 1
  49   25   26 1
  50   25   52 1
  51   25   53 1
  52   26   54 1
  53   26   55 1
  54   27   29 ar
  55   27   56 1
  56   28   57 1
  57   28   58 1
  58   28   59 1
  59   29   30 ar
  60   29   60 1
  61   30   31 ar
  62   31   32 ar
  63   31   61 1

#	End of record

