#	Name: ASD01140215
#	Creating user name:	WinNT
#	Creation time:	15. 06. 2019 19:00

#	Modifying user name:	WinNT
#	Modification time:	15. 06. 2019 19:00

#	Program:	/corina/corina34_cracker 3.40 0067  02.08.2006

@<TRIPOS>MOLECULE
ASD01140215
  89   96    0    0    0
SMALL
NO_CHARGES


@<TRIPOS>ATOM
   1 C1             0.1779     1.6792     0.3811 C.ar    
   2 C2             0.0596     0.2870     0.3724 C.ar    
   3 C3             1.1915    -0.5044     0.2215 C.ar    
   4 C4             2.4548     0.0837     0.0773 C.ar    
   5 C5             2.5541     1.4774     0.0643 C.ar    
   6 C6             1.4156     2.2619     0.2279 C.ar    
   7 C7             3.6171    -0.8065    -0.0218 C.2     
   8 N8             4.6383    -0.6875    -0.7951 N.2     
   9 C9             4.7568     0.4175    -1.7536 C.3     
  10 C10            4.7620     1.7048    -0.9706 C.2     
  11 N11            3.7740     2.1270    -0.1435 N.pl3   
  12 C12           -1.2272    -0.3237     0.5195 C.1     
  13 C13            4.1780     3.3018     0.4120 C.2     
  14 C14            3.6144    -1.9839     0.8772 C.ar    
  15 C15            5.7382     2.6530    -0.9467 C.2     
  16 N16            5.3431     3.6199    -0.0767 N.2     
  17 C17            6.9906     2.6347    -1.7193 C.2     
  18 O18            7.8727     3.6465    -1.5970 O.3     
  19 O19            7.2295     1.7072    -2.4677 O.2     
  20 O20           14.2147     7.0067    -3.2636 O.3     
  21 C21           15.3863     7.0830    -3.9256 C.2     
  22 C22           16.2762     8.2363    -3.7159 C.2     
  23 O23           15.7080     6.1993    -4.6957 O.2     
  24 N24           16.0467     9.2918    -2.8894 N.2     
  25 C25           17.4840     8.4415    -4.3087 C.2     
  26 N26           17.9557     9.6294    -3.8580 N.pl3   
  27 C27           17.0495    10.1200    -2.9687 C.2     
  28 C28           18.1986     7.5254    -5.2690 C.3     
  29 N29           19.4823     7.1555    -4.6629 N.2     
  30 C30           20.3737     8.0379    -4.3701 C.2     
  31 C31           20.2951     9.4929    -4.5481 C.ar    
  32 C32           19.1471    10.2355    -4.2622 C.ar    
  33 C33           21.4334    10.1573    -5.0216 C.ar    
  34 C34           21.4288    11.5381    -5.1764 C.ar    
  35 C35           20.2838    12.2714    -4.8543 C.ar    
  36 C36           19.1593    11.6212    -4.4019 C.ar    
  37 C37           22.5959    12.2088    -5.6648 C.1     
  38 C38           21.6314     7.5216    -3.7818 C.ar    
  39 C39            9.0866     3.5621    -2.3892 C.3     
  40 C40           13.3877     5.8409    -3.5195 C.3     
  41 C41           22.4187     8.3461    -2.9782 C.ar    
  42 C42           23.5888     7.8593    -2.4326 C.ar    
  43 C43           23.9817     6.5562    -2.6813 C.ar    
  44 C44           23.2050     5.7336    -3.4776 C.ar    
  45 C45           22.0301     6.2073    -4.0245 C.ar    
  46 C46            4.3248    -3.1325     0.5288 C.ar    
  47 C47            4.3188    -4.2258     1.3706 C.ar    
  48 C48            3.6102    -4.1842     2.5581 C.ar    
  49 C49            2.9037    -3.0477     2.9092 C.ar    
  50 C50            2.9063    -1.9461     2.0782 C.ar    
  51 C51           -2.2822    -0.8244     0.6401 C.1     
  52 C52           23.5528    12.7586    -6.0652 C.1     
  53 C53            9.9580     4.7905    -2.1196 C.3     
  54 C54           11.2371     4.7015    -2.9544 C.3     
  55 C55           12.1086     5.9299    -2.6847 C.3     
  56 H56           -0.6998     2.2965     0.5032 H       
  57 H57            1.0969    -1.5802     0.2156 H       
  58 H58            1.5045     3.3383     0.2347 H       
  59 H59            5.6868     0.3222    -2.3141 H       
  60 H60            3.9089     0.4050    -2.4384 H       
  61 H61            3.6235     3.8765     1.1391 H       
  62 H62           17.1456    11.0447    -2.4191 H       
  63 H63           17.5999     6.6309    -5.4409 H       
  64 H64           18.3713     8.0421    -6.2131 H       
  65 H65           22.3207     9.5928    -5.2678 H       
  66 H66           20.2819    13.3462    -4.9603 H       
  67 H67           18.2765    12.1910    -4.1522 H       
  68 H68            9.6356     2.6605    -2.1178 H       
  69 H69            8.8280     3.5253    -3.4475 H       
  70 H70           13.1291     5.8041    -4.5777 H       
  71 H71           13.9367     4.9393    -3.2480 H       
  72 H72           22.1132     9.3635    -2.7836 H       
  73 H73           24.1995     8.4968    -1.8105 H       
  74 H74           24.8986     6.1798    -2.2523 H       
  75 H75           23.5169     4.7173    -3.6681 H       
  76 H76           21.4244     5.5641    -4.6456 H       
  77 H77            4.8780    -3.1662    -0.3981 H       
  78 H78            4.8682    -5.1159     1.1018 H       
  79 H79            3.6083    -5.0425     3.2136 H       
  80 H80            2.3524    -3.0212     3.8375 H       
  81 H81            2.3546    -1.0594     2.3535 H       
  82 H82           -3.2258    -1.2722     0.7479 H       
  83 H83           24.4086    13.2503    -6.4234 H       
  84 H84            9.4090     5.6921    -2.3910 H       
  85 H85           10.2166     4.8273    -1.0613 H       
  86 H86           11.7862     3.7999    -2.6829 H       
  87 H87           10.9786     4.6647    -4.0126 H       
  88 H88           12.3671     5.9667    -1.6265 H       
  89 H89           11.5595     6.8315    -2.9561 H       
@<TRIPOS>BOND
   1    1    2 ar
   2    1    6 ar
   3    1   56 1
   4    2    3 ar
   5    2   12 1
   6    3    4 ar
   7    3   57 1
   8    4    5 ar
   9    4    7 1
  10    5    6 ar
  11    5   11 1
  12    6   58 1
  13    7    8 2
  14    7   14 1
  15    8    9 1
  16    9   10 1
  17    9   59 1
  18    9   60 1
  19   10   11 1
  20   10   15 2
  21   11   13 1
  22   12   51 3
  23   13   16 2
  24   13   61 1
  25   14   46 ar
  26   14   50 ar
  27   15   16 1
  28   15   17 1
  29   17   18 1
  30   17   19 2
  31   18   39 1
  32   20   21 1
  33   20   40 1
  34   21   22 1
  35   21   23 2
  36   22   24 1
  37   22   25 2
  38   24   27 2
  39   25   26 1
  40   25   28 1
  41   26   27 1
  42   26   32 1
  43   27   62 1
  44   28   29 1
  45   28   63 1
  46   28   64 1
  47   29   30 2
  48   30   31 1
  49   30   38 1
  50   31   32 ar
  51   31   33 ar
  52   32   36 ar
  53   33   34 ar
  54   33   65 1
  55   34   35 ar
  56   34   37 1
  57   35   36 ar
  58   35   66 1
  59   36   67 1
  60   37   52 3
  61   38   41 ar
  62   38   45 ar
  63   39   53 1
  64   39   68 1
  65   39   69 1
  66   40   55 1
  67   40   70 1
  68   40   71 1
  69   41   42 ar
  70   41   72 1
  71   42   43 ar
  72   42   73 1
  73   43   44 ar
  74   43   74 1
  75   44   45 ar
  76   44   75 1
  77   45   76 1
  78   46   47 ar
  79   46   77 1
  80   47   48 ar
  81   47   78 1
  82   48   49 ar
  83   48   79 1
  84   49   50 ar
  85   49   80 1
  86   50   81 1
  87   51   82 1
  88   52   83 1
  89   53   54 1
  90   53   84 1
  91   53   85 1
  92   54   55 1
  93   54   86 1
  94   54   87 1
  95   55   88 1
  96   55   89 1

#	End of record

