#	Name: ASD01917880
#	Creating user name:	WinNT
#	Creation time:	15. 06. 2019 20:10

#	Modifying user name:	WinNT
#	Modification time:	15. 06. 2019 20:10

#	Program:	/corina/corina34_cracker 3.40 0067  02.08.2006

@<TRIPOS>MOLECULE
ASD01917880
  45   48    0    0    0
SMALL
NO_CHARGES


@<TRIPOS>ATOM
   1 C1            -0.0149     1.3202    -0.0013 C.2     
   2 C2            -0.0104    -0.0260     0.0074 C.2     
   3 C3            -1.2835    -0.8580     0.0239 C.3     
   4 C4            -2.4465     0.0146     0.5018 C.3     
   5 N5            -2.4115     1.2983    -0.2151 N.am    
   6 C6            -1.2560     2.1827     0.0159 C.3     
   7 C7            -3.4039     1.6536    -1.0549 C.2     
   8 O8            -4.2927     0.8655    -1.3136 O.2     
   9 S9             1.6484     1.8887    -0.0281 S.3     
  10 C10            2.2082     0.2737    -0.0206 C.2     
  11 N11            1.2119    -0.5401    -0.0014 N.2     
  12 C12            3.6580    -0.1371    -0.0349 C.3     
  13 O13            4.0997    -0.2785    -1.3866 O.3     
  14 C14            5.3915    -0.6468    -1.5771 C.ar    
  15 N15            6.1740    -0.8558    -0.5316 N.ar    
  16 C16            7.4360    -1.2150    -0.6720 C.ar    
  17 C17            7.9877    -1.3859    -1.9259 C.ar    
  18 C18            7.1993    -1.1761    -3.0491 C.ar    
  19 C19            5.8782    -0.8061    -2.8685 C.ar    
  20 C20           -3.4117     3.0008    -1.6611 C.ar    
  21 C21           -2.9451     4.0986    -0.9349 C.ar    
  22 C22           -2.9547     5.3534    -1.5053 C.ar    
  23 C23           -3.4263     5.5267    -2.7976 C.ar    
  24 C24           -3.8911     4.4401    -3.5229 C.ar    
  25 C25           -3.8803     3.1800    -2.9644 C.ar    
  26 F26           -3.4334     6.7587    -3.3520 F       
  27 C27            8.2858    -1.4410     0.5518 C.3     
  28 H28           -1.4921    -1.2247    -0.9811 H       
  29 H29           -1.1585    -1.7020     0.7023 H       
  30 H30           -3.3899    -0.4915     0.2971 H       
  31 H31           -2.3523     0.1928     1.5730 H       
  32 H32           -1.3536     2.6745     0.9837 H       
  33 H33           -1.1973     2.9297    -0.7758 H       
  34 H34            4.2564     0.6244     0.4651 H       
  35 H35            3.7713    -1.0880     0.4857 H       
  36 H36            9.0217    -1.6794    -2.0318 H       
  37 H37            7.6066    -1.3031    -4.0413 H       
  38 H38            5.2365    -0.6348    -3.7201 H       
  39 H39           -2.5779     3.9648     0.0718 H       
  40 H40           -2.5944     6.2031    -0.9445 H       
  41 H41           -4.2577     4.5807    -4.5290 H       
  42 H42           -4.2422     2.3343    -3.5303 H       
  43 H43            8.2106    -2.4842     0.8588 H       
  44 H44            9.3245    -1.2040     0.3217 H       
  45 H45            7.9369    -0.7984     1.3601 H       
@<TRIPOS>BOND
   1    1    2 2
   2    1    9 1
   3    1    6 1
   4    2    3 1
   5    2   11 1
   6    3    4 1
   7    3   28 1
   8    3   29 1
   9    4    5 1
  10    4   30 1
  11    4   31 1
  12    5    6 1
  13    5    7 am
  14    6   32 1
  15    6   33 1
  16    7    8 2
  17    7   20 1
  18    9   10 1
  19   10   11 2
  20   10   12 1
  21   12   13 1
  22   12   34 1
  23   12   35 1
  24   13   14 1
  25   14   15 ar
  26   14   19 ar
  27   15   16 ar
  28   16   17 ar
  29   16   27 1
  30   17   18 ar
  31   17   36 1
  32   18   19 ar
  33   18   37 1
  34   19   38 1
  35   20   21 ar
  36   20   25 ar
  37   21   22 ar
  38   21   39 1
  39   22   23 ar
  40   22   40 1
  41   23   24 ar
  42   23   26 1
  43   24   25 ar
  44   24   41 1
  45   25   42 1
  46   27   43 1
  47   27   44 1
  48   27   45 1

#	End of record

