#	Name: ASD04370032
#	Creating user name:	WinNT
#	Creation time:	15. 06. 2019 20:49

#	Modifying user name:	WinNT
#	Modification time:	15. 06. 2019 20:49

#	Program:	/corina/corina34_cracker 3.40 0067  02.08.2006

@<TRIPOS>MOLECULE
ASD04370032
  60   60    0    0    0
SMALL
NO_CHARGES


@<TRIPOS>ATOM
   1 C1             3.2665    -0.4330    -0.7076 C.2     
   2 C2             1.9337     0.2213    -0.9655 C.3     
   3 C3             0.9276    -0.2366     0.0924 C.3     
   4 C4            -0.4556     0.3253    -0.2424 C.3     
   5 O5             3.4224    -1.1302     0.2804 O.co2   
   6 O6             4.1875    -0.2694    -1.4897 O.co2   
   7 N7            -1.4387    -0.1875     0.7212 N.4     
   8 C8            -1.1266     0.3285     2.0607 C.3     
   9 C9            -2.7844     0.2517     0.3285 C.3     
  10 C10           -1.3882    -1.6556     0.7380 C.3     
  11 N11            1.3472     0.2508     1.4087 N.am    
  12 C12            1.5401     1.5696     1.6089 C.2     
  13 C13            2.0815     2.0604     2.9269 C.3     
  14 C14            2.2039     3.5851     2.8920 C.3     
  15 C15            2.7536     4.0833     4.2301 C.3     
  16 C16            2.8760     5.6080     4.1952 C.3     
  17 C17            3.4257     6.1063     5.5333 C.3     
  18 C18            3.5481     7.6310     5.4984 C.3     
  19 C19            4.0978     8.1292     6.8365 C.3     
  20 O20            1.2779     2.3614     0.7284 O.2     
  21 C21            4.2184     9.6310     6.8021 C.ar    
  22 C22            3.1576    10.4190     7.2079 C.ar    
  23 C23            3.2682    11.7966     7.1763 C.ar    
  24 C24            4.4397    12.3861     6.7394 C.ar    
  25 C25            5.5008    11.5981     6.3345 C.ar    
  26 C26            5.3918    10.2205     6.3702 C.ar    
  27 H27            2.0451     1.3045    -0.9162 H       
  28 H28            1.5750    -0.0624    -1.9549 H       
  29 H29            0.8841    -1.3256     0.1051 H       
  30 H30           -0.4283     1.4136    -0.1892 H       
  31 H31           -0.7388     0.0176    -1.2490 H       
  32 H32           -0.9681     1.4056     2.0073 H       
  33 H33           -1.9568     0.1163     2.7343 H       
  34 H34           -0.2232    -0.1536     2.4344 H       
  35 H35           -3.0159    -0.1312    -0.6654 H       
  36 H36           -3.5138    -0.1288     1.0435 H       
  37 H37           -2.8218     1.3410     0.3161 H       
  38 H38           -0.3897    -1.9815     1.0293 H       
  39 H39           -2.1177    -2.0361     1.4530 H       
  40 H40           -1.6198    -2.0385    -0.2559 H       
  41 H41            1.4862    -0.3756     2.1361 H       
  42 H42            1.4040     1.7685     3.7293 H       
  43 H43            3.0634     1.6210     3.1025 H       
  44 H44            2.8814     3.8769     2.0895 H       
  45 H45            1.2220     4.0245     2.7163 H       
  46 H46            2.0761     3.7915     5.0325 H       
  47 H47            3.7355     3.6439     4.4057 H       
  48 H48            3.5535     5.8999     3.3927 H       
  49 H49            1.8941     6.0474     4.0195 H       
  50 H50            2.7482     5.8144     6.3357 H       
  51 H51            4.4076     5.6669     5.7090 H       
  52 H52            4.2256     7.9228     4.6959 H       
  53 H53            2.5662     8.0704     5.3227 H       
  54 H54            3.4203     7.8374     7.6389 H       
  55 H55            5.0797     7.6898     7.0122 H       
  56 H56            2.2423     9.9584     7.5492 H       
  57 H57            2.4392    12.4123     7.4927 H       
  58 H58            4.5258    13.4624     6.7141 H       
  59 H59            6.4160    12.0587     5.9928 H       
  60 H60            6.2221     9.6048     6.0573 H       
@<TRIPOS>BOND
   1    1    2 1
   2    1    5 ar
   3    1    6 ar
   4    2    3 1
   5    2   27 1
   6    2   28 1
   7    3    4 1
   8    3   11 1
   9    3   29 1
  10    4    7 1
  11    4   30 1
  12    4   31 1
  13    7    8 1
  14    7    9 1
  15    7   10 1
  16    8   32 1
  17    8   33 1
  18    8   34 1
  19    9   35 1
  20    9   36 1
  21    9   37 1
  22   10   38 1
  23   10   39 1
  24   10   40 1
  25   11   12 am
  26   11   41 1
  27   12   13 1
  28   12   20 2
  29   13   14 1
  30   13   42 1
  31   13   43 1
  32   14   15 1
  33   14   44 1
  34   14   45 1
  35   15   16 1
  36   15   46 1
  37   15   47 1
  38   16   17 1
  39   16   48 1
  40   16   49 1
  41   17   18 1
  42   17   50 1
  43   17   51 1
  44   18   19 1
  45   18   52 1
  46   18   53 1
  47   19   21 1
  48   19   54 1
  49   19   55 1
  50   21   22 ar
  51   21   26 ar
  52   22   23 ar
  53   22   56 1
  54   23   24 ar
  55   23   57 1
  56   24   25 ar
  57   24   58 1
  58   25   26 ar
  59   25   59 1
  60   26   60 1

#	End of record

