#	Name: ASD08170076
#	Creating user name:	WinNT
#	Creation time:	15. 06. 2019 21:17

#	Modifying user name:	WinNT
#	Modification time:	15. 06. 2019 21:17

#	Program:	/corina/corina34_cracker 3.40 0067  02.08.2006

@<TRIPOS>MOLECULE
ASD08170076
  69   72    0    0    0
SMALL
NO_CHARGES


@<TRIPOS>ATOM
   1 N1            -0.0150     1.2583     0.0090 N.2     
   2 N2             0.0021    -0.0041     0.0020 N.2     
   3 C3             1.1271     1.8769     0.0014 C.2     
   4 S4             2.3826     0.7116    -0.0169 S.3     
   5 C5             1.1681    -0.5677    -0.0121 C.2     
   6 C6             1.4387    -2.0502    -0.0227 C.3     
   7 C7             1.5165    -2.5442    -1.4687 C.3     
   8 C8             2.1699    -6.2152    -3.4347 C.3     
   9 C9             2.2167    -6.5408    -4.9053 C.2     
  10 N10            3.2694    -6.5184    -5.6596 N.2     
  11 S11            0.8491    -7.0282    -5.9071 S.3     
  12 C12            1.9000    -7.1354    -7.2557 C.2     
  13 N13            3.1017    -6.8250    -6.8728 N.2     
  14 N14            1.5289    -7.4992    -8.5457 N.am    
  15 C15            2.4537    -7.5464    -9.5250 C.2     
  16 O16            3.6096    -7.2716    -9.2812 O.2     
  17 C17            2.0516    -7.9407   -10.9228 C.3     
  18 N18            1.3017     3.2566     0.0067 N.am    
  19 C19            0.2284     4.0717     0.0214 C.2     
  20 C20            0.4176     5.5667     0.0272 C.3     
  21 O21           -0.8897     3.6019     0.0299 O.2     
  22 C22            1.8986    -4.7206    -3.2516 C.3     
  23 C23            1.4199    -6.7397   -11.6296 C.3     
  24 S24            1.8422    -4.3286    -1.4814 S.3     
  25 C25            0.7162     6.0485    -1.3940 C.3     
  26 N26            3.2388    -8.3790   -11.6686 N.3     
  27 C27            0.9119     7.5747    -1.4030 C.3     
  28 N28           -0.8074     6.2135     0.5162 N.3     
  29 C29            2.0388     5.4317    -1.8941 C.3     
  30 C30            2.6954     6.5627    -2.7241 C.3     
  31 C31            2.3465     7.8322    -1.9082 C.3     
  32 C32            1.0042    -7.1283   -13.0593 C.3     
  33 C33            0.1314    -6.3128   -10.8966 C.3     
  34 C34           -0.8303    -5.8891   -12.0345 C.3     
  35 C35           -0.5225    -6.9239   -13.1452 C.3     
  36 H36            2.3843    -2.2506     0.4811 H       
  37 H37            0.6334    -2.5702     0.4961 H       
  38 H38            0.5709    -2.3438    -1.9724 H       
  39 H39            2.3218    -2.0242    -1.9874 H       
  40 H40            1.3741    -6.7896    -2.9605 H       
  41 H41            3.1250    -6.4700    -2.9755 H       
  42 H42            0.6045    -7.7190    -8.7407 H       
  43 H43            1.3298    -8.7561   -10.8769 H       
  44 H44            2.1959     3.6323    -0.0001 H       
  45 H45            1.2507     5.8250     0.6809 H       
  46 H46            2.6943    -4.1461    -3.7258 H       
  47 H47            0.9434    -4.4658    -3.7108 H       
  48 H48            2.1262    -5.9100   -11.6587 H       
  49 H49           -0.1008     5.7729    -2.0608 H       
  50 H50            3.9235    -7.6400   -11.7252 H       
  51 H51            3.6371    -9.2103   -11.2583 H       
  52 H52            0.1904     8.0397    -2.0748 H       
  53 H53            0.7941     7.9722    -0.3949 H       
  54 H54           -0.6840     7.2121     0.5906 H       
  55 H55           -1.5948     5.9893    -0.0736 H       
  56 H56            2.6746     5.1581    -1.0520 H       
  57 H57            1.8412     4.5630    -2.5221 H       
  58 H58            3.7751     6.4239    -2.7799 H       
  59 H59            2.2592     6.6127    -3.7218 H       
  60 H60            2.3735     8.7153    -2.5465 H       
  61 H61            3.0320     7.9462    -1.0684 H       
  62 H62            1.5080    -6.4866   -13.7821 H       
  63 H63            1.2524    -8.1724   -13.2495 H       
  64 H64           -0.2849    -7.1507   -10.3375 H       
  65 H65            0.3310    -5.4716   -10.2328 H       
  66 H66           -1.8685    -5.9663   -11.7116 H       
  67 H67           -0.6046    -4.8785   -12.3748 H       
  68 H68           -0.8001    -6.5287   -14.1223 H       
  69 H69           -1.0444    -7.8606   -12.9491 H       
@<TRIPOS>BOND
   1    1    2 1
   2    1    3 2
   3    2    5 2
   4    3    4 1
   5    3   18 1
   6    4    5 1
   7    5    6 1
   8    6    7 1
   9    6   36 1
  10    6   37 1
  11    7   24 1
  12    7   38 1
  13    7   39 1
  14    8    9 1
  15    8   22 1
  16    8   40 1
  17    8   41 1
  18    9   10 2
  19    9   11 1
  20   10   13 1
  21   11   12 1
  22   12   13 2
  23   12   14 1
  24   14   15 am
  25   14   42 1
  26   15   16 2
  27   15   17 1
  28   17   23 1
  29   17   26 1
  30   17   43 1
  31   18   19 am
  32   18   44 1
  33   19   20 1
  34   19   21 2
  35   20   25 1
  36   20   28 1
  37   20   45 1
  38   22   24 1
  39   22   46 1
  40   22   47 1
  41   23   32 1
  42   23   33 1
  43   23   48 1
  44   25   27 1
  45   25   29 1
  46   25   49 1
  47   26   50 1
  48   26   51 1
  49   27   31 1
  50   27   52 1
  51   27   53 1
  52   28   54 1
  53   28   55 1
  54   29   30 1
  55   29   56 1
  56   29   57 1
  57   30   31 1
  58   30   58 1
  59   30   59 1
  60   31   60 1
  61   31   61 1
  62   32   35 1
  63   32   62 1
  64   32   63 1
  65   33   34 1
  66   33   64 1
  67   33   65 1
  68   34   35 1
  69   34   66 1
  70   34   67 1
  71   35   68 1
  72   35   69 1

#	End of record

