#	Name: ASD01884660
#	Creating user name:	WinNT
#	Creation time:	15. 06. 2019 19:48

#	Modifying user name:	WinNT
#	Modification time:	15. 06. 2019 19:48

#	Program:	/corina/corina34_cracker 3.40 0067  02.08.2006

@<TRIPOS>MOLECULE
ASD01884660
  52   54    0    0    0
SMALL
NO_CHARGES


@<TRIPOS>ATOM
   1 C1            -0.0599     1.3493     0.0188 C.2     
   2 C2            -0.0337    -0.0123     0.0099 C.2     
   3 C3             1.2120    -0.6762    -0.0074 C.2     
   4 C4             2.3664     0.0520    -0.0148 C.2     
   5 N5             2.3262     1.4077    -0.0058 N.am    
   6 C6             1.1511     2.0638     0.0107 C.2     
   7 O7             1.1366     3.2842     0.0182 O.2     
   8 C8             1.2662    -2.1590    -0.0169 C.ar    
   9 C9             3.5784     2.1679    -0.0136 C.3     
  10 C10            3.9935     2.4377    -1.4370 C.ar    
  11 C11            3.4029     3.4694    -2.1465 C.ar    
  12 C12            3.7852     3.7169    -3.4541 C.ar    
  13 C13            4.7564     2.9331    -4.0498 C.ar    
  14 C14            5.3456     1.9022    -3.3391 C.ar    
  15 C15            4.9678     1.6586    -2.0322 C.ar    
  16 F16            2.4539     4.2341    -1.5636 F       
  17 Cl17           5.2360     3.2421    -5.6894 Cl      
  18 C18            0.7938    -2.8818     1.0773 C.ar    
  19 C19            1.7842    -2.8315    -1.1224 C.ar    
  20 C20            1.8331    -4.2095    -1.1292 C.ar    
  21 C21            1.3664    -4.9277    -0.0350 C.ar    
  22 C22            0.8447    -4.2597     1.0660 C.ar    
  23 N23            1.4167    -6.3261    -0.0444 N.am    
  24 C24            1.6563    -6.9995     1.0982 C.2     
  25 O25            1.5975    -8.3446     1.1120 O.3     
  26 O26            1.9254    -6.3927     2.1160 O.2     
  27 C27            1.8670    -9.0034     2.3776 C.3     
  28 C28            0.8508    -8.5368     3.4219 C.3     
  29 C29            1.7546   -10.5186     2.1980 C.3     
  30 C30            3.2796    -8.6488     2.8465 C.3     
  31 H31           -1.0029     1.8758     0.0276 H       
  32 H32           -0.9543    -0.5770     0.0163 H       
  33 H33            3.3196    -0.4554    -0.0277 H       
  34 H34            3.4324     3.1140     0.5078 H       
  35 H35            4.3560     1.5925     0.4887 H       
  36 H36            3.3249     4.5213    -4.0086 H       
  37 H37            6.1041     1.2903    -3.8047 H       
  38 H38            5.4283     0.8538    -1.4784 H       
  39 H39            0.3886    -2.3630     1.9335 H       
  40 H40            2.1467    -2.2737    -1.9732 H       
  41 H41            2.2340    -4.7310    -1.9857 H       
  42 H42            0.4826    -4.8200     1.9153 H       
  43 H43            1.2790    -6.8108    -0.8732 H       
  44 H44           -0.1555    -8.7894     3.0878 H       
  45 H45            1.0531    -9.0313     4.3720 H       
  46 H46            0.9309    -7.4573     3.5498 H       
  47 H47            2.4785   -10.8510     1.4540 H       
  48 H48            1.9569   -11.0131     3.1481 H       
  49 H49            0.7482   -10.7712     1.8639 H       
  50 H50            3.3597    -7.5693     2.9744 H       
  51 H51            3.4819    -9.1433     3.7965 H       
  52 H52            4.0035    -8.9812     2.1025 H       
@<TRIPOS>BOND
   1    1    2 2
   2    1    6 1
   3    1   31 1
   4    2    3 1
   5    2   32 1
   6    3    4 2
   7    3    8 1
   8    4    5 1
   9    4   33 1
  10    5    6 am
  11    5    9 1
  12    6    7 2
  13    8   18 ar
  14    8   19 ar
  15    9   10 1
  16    9   34 1
  17    9   35 1
  18   10   11 ar
  19   10   15 ar
  20   11   12 ar
  21   11   16 1
  22   12   13 ar
  23   12   36 1
  24   13   14 ar
  25   13   17 1
  26   14   15 ar
  27   14   37 1
  28   15   38 1
  29   18   22 ar
  30   18   39 1
  31   19   20 ar
  32   19   40 1
  33   20   21 ar
  34   20   41 1
  35   21   22 ar
  36   21   23 1
  37   22   42 1
  38   23   24 am
  39   23   43 1
  40   24   25 1
  41   24   26 2
  42   25   27 1
  43   27   28 1
  44   27   29 1
  45   27   30 1
  46   28   44 1
  47   28   45 1
  48   28   46 1
  49   29   47 1
  50   29   48 1
  51   29   49 1
  52   30   50 1
  53   30   51 1
  54   30   52 1

#	End of record

