#	Name: ASD01940332
#	Creating user name:	WinNT
#	Creation time:	15. 06. 2019 20:12

#	Modifying user name:	WinNT
#	Modification time:	15. 06. 2019 20:12

#	Program:	/corina/corina34_cracker 3.40 0067  02.08.2006

@<TRIPOS>MOLECULE
ASD01940332
  37   38    0    0    0
SMALL
NO_CHARGES


@<TRIPOS>ATOM
   1 N1            -0.0169     1.3941     0.0097 N.pl3   
   2 C2             0.0087    -0.0006     0.1070 C.ar    
   3 C3             1.1990    -0.6561     0.4032 C.ar    
   4 C4             1.2228    -2.0370     0.4997 C.ar    
   5 C5             0.0624    -2.7663     0.3014 C.ar    
   6 C6            -1.1260    -2.1151     0.0058 C.ar    
   7 C7            -1.1549    -0.7321    -0.0864 C.ar    
   8 N8            -2.4244    -0.0366    -0.3959 N.pl3   
   9 O9            -2.7327     0.1816    -1.5538 O.2     
  10 O10           -3.1607     0.3175     0.5075 O.2     
  11 O11           -2.2640    -2.8329    -0.1885 O.3     
  12 C12           -2.1625    -4.2536    -0.0730 C.3     
  13 C13           -3.5338    -4.8848    -0.3225 C.3     
  14 O14           -3.9307    -4.6428    -1.6738 O.3     
  15 C15           -5.2049    -5.1938    -2.0128 C.3     
  16 C16            1.1745     2.1047    -0.1697 C.ar    
  17 C17            1.8548     2.0308    -1.3812 C.ar    
  18 C18            3.0317     2.7350    -1.5545 C.ar    
  19 C19            3.5322     3.5122    -0.5247 C.ar    
  20 C20            2.8575     3.5869     0.6802 C.ar    
  21 C21            1.6778     2.8898     0.8585 C.ar    
  22 I22            5.3164     4.5773    -0.7912 I       
  23 F23            1.3663     1.2717    -2.3863 F       
  24 F24            2.3792    -2.6737     0.7870 F       
  25 F25            2.3318     0.0543     0.5964 F       
  26 H26           -0.8613     1.8686     0.0627 H       
  27 H27            0.0829    -3.8435     0.3766 H       
  28 H28           -1.4508    -4.6281    -0.8087 H       
  29 H29           -1.8200    -4.5132     0.9288 H       
  30 H30           -3.4765    -5.9592    -0.1475 H       
  31 H31           -4.2651    -4.4447     0.3554 H       
  32 H32           -5.4333    -4.9670    -3.0542 H       
  33 H33           -5.1823    -6.2745    -1.8729 H       
  34 H34           -5.9709    -4.7601    -1.3700 H       
  35 H35            3.5610     2.6784    -2.4942 H       
  36 H36            3.2513     4.1942     1.4818 H       
  37 H37            1.1499     2.9525     1.7986 H       
@<TRIPOS>BOND
   1    1    2 1
   2    1   16 1
   3    1   26 1
   4    2    3 ar
   5    2    7 ar
   6    3    4 ar
   7    3   25 1
   8    4    5 ar
   9    4   24 1
  10    5    6 ar
  11    5   27 1
  12    6    7 ar
  13    6   11 1
  14    7    8 1
  15    8    9 2
  16    8   10 2
  17   11   12 1
  18   12   13 1
  19   12   28 1
  20   12   29 1
  21   13   14 1
  22   13   30 1
  23   13   31 1
  24   14   15 1
  25   15   32 1
  26   15   33 1
  27   15   34 1
  28   16   17 ar
  29   16   21 ar
  30   17   18 ar
  31   17   23 1
  32   18   19 ar
  33   18   35 1
  34   19   20 ar
  35   19   22 1
  36   20   21 ar
  37   20   36 1
  38   21   37 1

#	End of record

