#	Name: ASD00170564
#	Creating user name:	WinNT
#	Creation time:	15. 06. 2019 18:32

#	Modifying user name:	WinNT
#	Modification time:	15. 06. 2019 18:32

#	Program:	/corina/corina34_cracker 3.40 0067  02.08.2006

@<TRIPOS>MOLECULE
ASD00170564
  57   61    0    0    0
SMALL
NO_CHARGES


@<TRIPOS>ATOM
   1 N1            -0.3125     1.7389     0.0406 N.3     
   2 C2            -0.1205     0.2828     0.0712 C.3     
   3 C3            -1.4488    -0.3944     0.2904 C.2     
   4 C4            -1.8493    -0.8496     1.4673 C.2     
   5 S5            -3.4423    -1.5751     1.3494 S.3     
   6 C6            -3.5515    -1.2492    -0.3200 C.2     
   7 C7            -2.4184    -0.6075    -0.7635 C.2     
   8 C8            -2.2113    -0.1943    -2.1512 C.2     
   9 O9            -2.5295     0.9261    -2.5069 O.2     
  10 C10           -1.6154    -1.1370    -3.1224 C.ar    
  11 C11           -1.5163    -0.7855    -4.4698 C.ar    
  12 C12           -0.9593    -1.6686    -5.3707 C.ar    
  13 C13           -0.4990    -2.9024    -4.9410 C.ar    
  14 C14           -0.5951    -3.2568    -3.6055 C.ar    
  15 C15           -1.1446    -2.3796    -2.6943 C.ar    
  16 N16           -4.6300    -1.5785    -1.1157 N.pl3   
  17 Cl17           0.2005    -4.0090    -6.0810 Cl      
  18 C18            0.9891     2.4468     0.0669 C.3     
  19 C19            0.7729     3.7336     0.8661 C.3     
  20 C20           -0.6935     3.7114     1.3235 C.3     
  21 C21           -1.0523     2.2040     1.2427 C.3     
  22 C22            1.7221     3.8113     2.0672 C.3     
  23 C23            2.5320     5.1094     1.8434 C.3     
  24 N24            1.6688     5.9441     0.9671 N.3     
  25 C25            1.0634     4.9753     0.0137 C.3     
  26 C26            2.4234     6.9068     0.2913 C.ar    
  27 C27            3.4492     6.5155    -0.5594 C.ar    
  28 C28            4.1934     7.4690    -1.2260 C.ar    
  29 C29            3.9178     8.8133    -1.0470 C.ar    
  30 C30            2.8966     9.2060    -0.1997 C.ar    
  31 C31            2.1452     8.2565     0.4647 C.ar    
  32 Cl32           4.8552    10.0092    -1.8865 Cl      
  33 H33            0.3038    -0.0477    -0.8768 H       
  34 H34            0.5583     0.0229     0.8834 H       
  35 H35           -1.2724    -0.7836     2.3780 H       
  36 H36           -1.8755     0.1759    -4.8061 H       
  37 H37           -0.8821    -1.3978    -6.4133 H       
  38 H38           -0.2349    -4.2203    -3.2763 H       
  39 H39           -1.2186    -2.6569    -1.6531 H       
  40 H40           -5.3633    -2.0965    -0.7485 H       
  41 H41           -4.6547    -1.2920    -2.0420 H       
  42 H42            1.7413     1.8267     0.5544 H       
  43 H43            1.3039     2.6868    -0.9487 H       
  44 H44           -0.7849     4.0763     2.3465 H       
  45 H45           -1.3184     4.2943     0.6468 H       
  46 H46           -2.1258     2.0712     1.1085 H       
  47 H47           -0.7074     1.6787     2.1333 H       
  48 H48            1.1551     3.8727     2.9961 H       
  49 H49            2.3862     2.9471     2.0830 H       
  50 H50            2.7109     5.6142     2.7927 H       
  51 H51            3.4763     4.8872     1.3462 H       
  52 H52            1.7672     4.7344    -0.7829 H       
  53 H53            0.1391     5.3768    -0.4018 H       
  54 H54            3.6650     5.4665    -0.6993 H       
  55 H55            4.9914     7.1653    -1.8874 H       
  56 H56            2.6842    10.2558    -0.0612 H       
  57 H57            1.3482     8.5636     1.1256 H       
@<TRIPOS>BOND
   1    1    2 1
   2    1   18 1
   3    1   21 1
   4    2    3 1
   5    2   33 1
   6    2   34 1
   7    3    4 2
   8    3    7 1
   9    4    5 1
  10    4   35 1
  11    5    6 1
  12    6    7 2
  13    6   16 1
  14    7    8 1
  15    8    9 2
  16    8   10 1
  17   10   11 ar
  18   10   15 ar
  19   11   12 ar
  20   11   36 1
  21   12   13 ar
  22   12   37 1
  23   13   14 ar
  24   13   17 1
  25   14   15 ar
  26   14   38 1
  27   15   39 1
  28   16   40 1
  29   16   41 1
  30   18   19 1
  31   18   42 1
  32   18   43 1
  33   19   20 1
  34   19   22 1
  35   19   25 1
  36   20   21 1
  37   20   44 1
  38   20   45 1
  39   21   46 1
  40   21   47 1
  41   22   23 1
  42   22   48 1
  43   22   49 1
  44   23   24 1
  45   23   50 1
  46   23   51 1
  47   24   25 1
  48   24   26 1
  49   25   52 1
  50   25   53 1
  51   26   27 ar
  52   26   31 ar
  53   27   28 ar
  54   27   54 1
  55   28   29 ar
  56   28   55 1
  57   29   30 ar
  58   29   32 1
  59   30   31 ar
  60   30   56 1
  61   31   57 1

#	End of record

