#	Name: ASD01870244
#	Creating user name:	WinNT
#	Creation time:	15. 06. 2019 19:38

#	Modifying user name:	WinNT
#	Modification time:	15. 06. 2019 19:38

#	Program:	/corina/corina34_cracker 3.40 0067  02.08.2006

@<TRIPOS>MOLECULE
ASD01870244
  45   48    0    0    0
SMALL
NO_CHARGES


@<TRIPOS>ATOM
   1 C1             0.0768     1.1645    -0.4549 C.ar    
   2 C2             1.4073    -0.8401    -0.2246 C.ar    
   3 C3             2.5466    -0.0803    -0.1326 C.ar    
   4 C4             2.4614     1.3118    -0.2011 C.ar    
   5 C5             1.2188     1.9262    -0.3624 C.ar    
   6 C6             0.1593    -0.2298    -0.3868 C.ar    
   7 C7            -0.8661    -1.2864    -0.4533 C.2     
   8 N8            -0.2963    -2.4983    -0.3392 N.am    
   9 C9             1.1531    -2.3266    -0.1886 C.3     
  10 O10           -2.0579    -1.0897    -0.5912 O.2     
  11 C11           -1.0057    -3.7799    -0.3615 C.3     
  12 C12           -2.0145    -3.8245     0.7879 C.3     
  13 C13           -1.7431    -3.9315    -1.6935 C.3     
  14 C14            3.6895     2.1361    -0.1021 C.2     
  15 C15            3.9169     3.3068    -0.7616 C.2     
  16 N16            4.7604     1.8573     0.6562 N.2     
  17 N17            5.6476     2.7787     0.5093 N.2     
  18 N18            5.1494     3.7304    -0.3923 N.pl3   
  19 C19            2.9784     3.9968    -1.7177 C.3     
  20 C20            5.7999     4.8960    -0.8254 C.ar    
  21 C21            5.7688     7.2560    -1.2482 C.ar    
  22 C22            5.1269     6.1093    -0.8220 C.ar    
  23 C23            7.1217     4.8377    -1.2532 C.ar    
  24 C24            7.7601     5.9881    -1.6790 C.ar    
  25 C25            7.0835     7.1964    -1.6786 C.ar    
  26 F26            7.7084     8.3195    -2.0952 F       
  27 F27            7.7815     3.6588    -1.2526 F       
  28 H28           -0.8836     1.6435    -0.5756 H       
  29 H29            3.5070    -0.5582    -0.0075 H       
  30 H30            1.1535     3.0029    -0.4152 H       
  31 H31            1.6757    -2.8161    -1.0103 H       
  32 H32            1.4823    -2.7400     0.7648 H       
  33 H33           -0.2895    -4.5937    -0.2481 H       
  34 H34           -2.7308    -3.0107     0.6745 H       
  35 H35           -2.5423    -4.7780     0.7713 H       
  36 H36           -1.4892    -3.7165     1.7368 H       
  37 H37           -1.0244    -3.8997    -2.5124 H       
  38 H38           -2.2709    -4.8850    -1.7101 H       
  39 H39           -2.4594    -3.1177    -1.8069 H       
  40 H40            2.2891     4.6287    -1.1577 H       
  41 H41            3.5529     4.6111    -2.4110 H       
  42 H42            2.4143     3.2496    -2.2759 H       
  43 H43            5.2445     8.2003    -1.2453 H       
  44 H44            4.1015     6.1572    -0.4865 H       
  45 H45            8.7867     5.9443    -2.0115 H       
@<TRIPOS>BOND
   1    1    6 ar
   2    1    5 ar
   3    1   28 1
   4    2    3 ar
   5    2    6 ar
   6    2    9 1
   7    3    4 ar
   8    3   29 1
   9    4    5 ar
  10    4   14 1
  11    5   30 1
  12    6    7 1
  13    7    8 am
  14    7   10 2
  15    8    9 1
  16    8   11 1
  17    9   31 1
  18    9   32 1
  19   11   12 1
  20   11   13 1
  21   11   33 1
  22   12   34 1
  23   12   35 1
  24   12   36 1
  25   13   37 1
  26   13   38 1
  27   13   39 1
  28   14   16 1
  29   14   15 2
  30   15   18 1
  31   15   19 1
  32   16   17 2
  33   17   18 1
  34   18   20 1
  35   19   40 1
  36   19   41 1
  37   19   42 1
  38   20   23 ar
  39   20   22 ar
  40   21   22 ar
  41   21   25 ar
  42   21   43 1
  43   22   44 1
  44   23   24 ar
  45   23   27 1
  46   24   25 ar
  47   24   45 1
  48   25   26 1

#	End of record

