#	Name: ASD05430358
#	Creating user name:	WinNT
#	Creation time:	15. 06. 2019 21:00

#	Modifying user name:	WinNT
#	Modification time:	15. 06. 2019 21:00

#	Program:	/corina/corina34_cracker 3.40 0067  02.08.2006

@<TRIPOS>MOLECULE
ASD05430358
  57   61    0    0    0
SMALL
NO_CHARGES


@<TRIPOS>ATOM
   1 C1            -0.1710     1.2084     0.9656 C.ar    
   2 C2            -0.0147    -0.0171     0.3185 C.ar    
   3 C3            -1.0642    -0.5591    -0.4127 C.ar    
   4 C4            -2.2642     0.1116    -0.5025 C.ar    
   5 C5            -2.4283     1.3412     0.1438 C.ar    
   6 C6            -1.3738     1.8840     0.8846 C.ar    
   7 C7            -4.8620     1.3700    -0.0453 C.2     
   8 C8            -3.7095     2.0592     0.0490 C.2     
   9 N9            -7.2941     1.4537     0.2132 N.pl3   
  10 C10           -6.1497     2.0291    -0.3153 C.2     
  11 C11           -8.2178     2.7321     2.0400 C.ar    
  12 C12           -9.3007     2.7837     2.8979 C.ar    
  13 C13           -6.9567     3.0678     2.4960 C.ar    
  14 C14           -6.7770     3.4549     3.8105 C.ar    
  15 C15           -7.8608     3.5069     4.6706 C.ar    
  16 C16           -9.1235     3.1709     4.2126 C.ar    
  17 F17           -7.6863     3.8848     5.9559 F       
  18 O18            0.8580     1.7357     1.6807 O.3     
  19 C19            0.6278     2.9941     2.3175 C.3     
  20 C20            1.3749    -2.0208     0.7429 C.2     
  21 N21            1.2037    -0.7030     0.4057 N.pl3   
  22 C22            2.6987    -2.2645     0.7043 C.2     
  23 N23            3.3233    -1.1305     0.3538 N.2     
  24 C24            2.4389    -0.1879     0.1722 C.2     
  25 C25            3.3635    -3.5834     1.0036 C.3     
  26 O26           -7.3171     0.0521     0.4255 O.3     
  27 C27           -4.9174    -0.1423     0.1141 C.3     
  28 C28           -6.1198    -0.4731     1.0085 C.3     
  29 C29           -8.4113     2.3037     0.6082 C.3     
  30 C30           -8.5271     3.5437    -0.2673 C.3     
  31 C31           -7.6118     3.4843    -1.4824 C.3     
  32 N32           -6.2574     3.0706    -1.0889 N.2     
  33 H33           -0.9389    -1.5084    -0.9123 H       
  34 H34           -3.0781    -0.3118    -1.0723 H       
  35 H35           -1.4963     2.8331     1.3852 H       
  36 H36           -3.7251     3.1391     0.0551 H       
  37 H37          -10.2855     2.5215     2.5404 H       
  38 H38           -6.1115     3.0272     1.8249 H       
  39 H39           -5.7916     3.7164     4.1667 H       
  40 H40           -9.9696     3.2114     4.8825 H       
  41 H41            1.5266     3.3002     2.8528 H       
  42 H42            0.3807     3.7425     1.5645 H       
  43 H43           -0.1995     2.8994     3.0209 H       
  44 H44            0.5976    -2.7267     0.9956 H       
  45 H45            2.6531     0.8307    -0.1156 H       
  46 H46            3.4464    -4.1652     0.0856 H       
  47 H47            4.3584    -3.4045     1.4114 H       
  48 H48            2.7667    -4.1345     1.7304 H       
  49 H49           -5.0420    -0.6123    -0.8614 H       
  50 H50           -3.9996    -0.4984     0.5821 H       
  51 H51           -5.9717    -0.0299     1.9932 H       
  52 H52           -6.2099    -1.5547     1.1089 H       
  53 H53           -9.3355     1.7306     0.5339 H       
  54 H54           -9.5583     3.6411    -0.6067 H       
  55 H55           -8.2687     4.4204     0.3266 H       
  56 H56           -8.0125     2.7678    -2.1995 H       
  57 H57           -7.5662     4.4694    -1.9466 H       
@<TRIPOS>BOND
   1    1    2 ar
   2    1   18 1
   3    1    6 ar
   4    2    3 ar
   5    2   21 1
   6    3    4 ar
   7    3   33 1
   8    4    5 ar
   9    4   34 1
  10    5    6 ar
  11    5    8 1
  12    6   35 1
  13    7    8 2
  14    7   27 1
  15    7   10 1
  16    8   36 1
  17    9   10 1
  18    9   26 1
  19    9   29 1
  20   10   32 2
  21   11   12 ar
  22   11   13 ar
  23   11   29 1
  24   12   16 ar
  25   12   37 1
  26   13   14 ar
  27   13   38 1
  28   14   15 ar
  29   14   39 1
  30   15   16 ar
  31   15   17 1
  32   16   40 1
  33   18   19 1
  34   19   41 1
  35   19   42 1
  36   19   43 1
  37   20   21 1
  38   20   22 2
  39   20   44 1
  40   21   24 1
  41   22   23 1
  42   22   25 1
  43   23   24 2
  44   24   45 1
  45   25   46 1
  46   25   47 1
  47   25   48 1
  48   26   28 1
  49   27   28 1
  50   27   49 1
  51   27   50 1
  52   28   51 1
  53   28   52 1
  54   29   30 1
  55   29   53 1
  56   30   31 1
  57   30   54 1
  58   30   55 1
  59   31   32 1
  60   31   56 1
  61   31   57 1

#	End of record

