#	Name: ASD04880116
#	Creating user name:	WinNT
#	Creation time:	15. 06. 2019 20:52

#	Modifying user name:	WinNT
#	Modification time:	15. 06. 2019 20:52

#	Program:	/corina/corina34_cracker 3.40 0067  02.08.2006

@<TRIPOS>MOLECULE
ASD04880116
  54   57    0    0    0
SMALL
NO_CHARGES


@<TRIPOS>ATOM
   1 C1            -0.0144     1.2118     0.0087 C.2     
   2 O2             0.0633    -0.0015    -0.0134 O.2     
   3 C3             4.9125     4.1714    -0.0783 C.3     
   4 C4             5.8636     2.9972    -0.3921 C.3     
   5 C5             5.0695     1.7796     0.1263 C.3     
   6 C6             3.6149     2.1911     0.0445 C.ar    
   7 C7             2.4663     1.4226     0.0716 C.ar    
   8 C8             1.2149     2.0316    -0.0196 C.ar    
   9 C9             1.1303     3.4201    -0.1383 C.ar    
  10 C10            2.2819     4.1764    -0.1643 C.ar    
  11 C11            3.5242     3.5669    -0.0732 C.ar    
  12 N12           -1.2218     1.8090     0.0534 N.am    
  13 N13           -1.4444     3.1773     0.1942 N.2     
  14 C14           -2.6895     3.5091     0.2104 C.2     
  15 C15           -3.5442     2.2701     0.0670 C.3     
  16 C16           -2.5201     1.1233    -0.0448 C.3     
  17 C17           -4.4323     2.0852     1.2990 C.3     
  18 C18           -4.3946     2.3488    -1.2025 C.3     
  19 C19           -3.2016     4.8846     0.3476 C.ar    
  20 C20           -2.3110     5.9545     0.4732 C.ar    
  21 C21           -2.7965     7.2418     0.6015 C.ar    
  22 C22           -4.1711     7.4712     0.6056 C.ar    
  23 C23           -5.0552     6.4098     0.4809 C.ar    
  24 C24           -4.5780     5.1226     0.3466 C.ar    
  25 O25           -4.6466     8.7383     0.7324 O.3     
  26 C26           -6.0662     8.9019     0.7288 C.3     
  27 O27           -1.9328     8.2851     0.7244 O.3     
  28 C28           -0.5374     7.9770     0.7129 C.3     
  29 H29            5.1441     4.5949     0.8990 H       
  30 H30            4.9889     4.9367    -0.8507 H       
  31 H31            6.0392     2.9169    -1.4648 H       
  32 H32            6.8039     3.1052     0.1485 H       
  33 H33            5.2531     0.9112    -0.5063 H       
  34 H34            5.3433     1.5611     1.1585 H       
  35 H35            2.5380     0.3488     0.1632 H       
  36 H36            0.1654     3.8999    -0.2098 H       
  37 H37            2.2166     5.2505    -0.2561 H       
  38 H38           -2.6137     0.6150    -1.0045 H       
  39 H39           -2.6449     0.4187     0.7774 H       
  40 H40           -5.1007     2.9407     1.3967 H       
  41 H41           -5.0213     1.1747     1.1890 H       
  42 H42           -3.8077     2.0086     2.1890 H       
  43 H43           -3.7435     2.4573    -2.0699 H       
  44 H44           -4.9838     1.4371    -1.3022 H       
  45 H45           -5.0625     3.2079    -1.1397 H       
  46 H46           -1.2459     5.7754     0.4703 H       
  47 H47           -6.1196     6.5921     0.4845 H       
  48 H48           -5.2686     4.2985     0.2449 H       
  49 H49           -6.3105     9.9587     0.8368 H       
  50 H50           -6.4725     8.5293    -0.2116 H       
  51 H51           -6.4985     8.3424     1.5584 H       
  52 H52           -0.3066     7.3065     1.5407 H       
  53 H53           -0.2800     7.4930    -0.2292 H       
  54 H54            0.0385     8.8963     0.8184 H       
@<TRIPOS>BOND
   1    1    2 2
   2    1    8 1
   3    1   12 am
   4    3    4 1
   5    3   11 1
   6    3   29 1
   7    3   30 1
   8    4    5 1
   9    4   31 1
  10    4   32 1
  11    5    6 1
  12    5   33 1
  13    5   34 1
  14    6    7 ar
  15    6   11 ar
  16    7    8 ar
  17    7   35 1
  18    8    9 ar
  19    9   10 ar
  20    9   36 1
  21   10   11 ar
  22   10   37 1
  23   12   13 1
  24   12   16 1
  25   13   14 2
  26   14   15 1
  27   14   19 1
  28   15   16 1
  29   15   17 1
  30   15   18 1
  31   16   38 1
  32   16   39 1
  33   17   40 1
  34   17   41 1
  35   17   42 1
  36   18   43 1
  37   18   44 1
  38   18   45 1
  39   19   20 ar
  40   19   24 ar
  41   20   21 ar
  42   20   46 1
  43   21   22 ar
  44   21   27 1
  45   22   23 ar
  46   22   25 1
  47   23   24 ar
  48   23   47 1
  49   24   48 1
  50   25   26 1
  51   26   49 1
  52   26   50 1
  53   26   51 1
  54   27   28 1
  55   28   52 1
  56   28   53 1
  57   28   54 1

#	End of record

