#	Name: ASD01410874
#	Creating user name:	WinNT
#	Creation time:	15. 06. 2019 19:18

#	Modifying user name:	WinNT
#	Modification time:	15. 06. 2019 19:18

#	Program:	/corina/corina34_cracker 3.40 0067  02.08.2006

@<TRIPOS>MOLECULE
ASD01410874
 116  123    0    0    0
SMALL
NO_CHARGES


@<TRIPOS>ATOM
   1 N1             2.2395     2.1653    -1.7940 N.3     
   2 C2             1.8485    -1.5708    -1.3664 C.3     
   3 C3             1.8421    -0.2278    -2.1303 C.3     
   4 N4             3.1568    -0.2071    -2.7985 N.am    
   5 C5             3.4120    -1.5795    -3.2561 C.3     
   6 C6             2.5968    -2.5143    -2.3392 C.3     
   7 O7             2.5592    -1.4483    -0.1328 O.3     
   8 C8             2.9613    -1.7382    -4.6853 C.2     
   9 O9             2.4716    -0.7981    -5.2747 O.2     
  10 N10            3.1025    -2.9248    -5.3086 N.am    
  11 C11            1.7465     0.9396    -1.1562 C.3     
  12 C12            3.6748     2.0932    -2.0887 C.3     
  13 C13            3.9642     0.8591    -2.9084 C.2     
  14 O14            4.9169     0.8314    -3.6583 O.2     
  15 C15            4.0963     3.3366    -2.8744 C.3     
  16 C16            3.9198     4.5780    -1.9976 C.3     
  17 C17            2.5535    -3.1158    -6.6533 C.3     
  18 C18            1.0513    -3.0549    -6.7567 C.2     
  19 N19            0.3020    -2.9649    -5.6400 N.am    
  20 O20            0.5165    -3.0870    -7.8448 O.2     
  21 S21           -1.3376    -2.7645    -5.7569 S.o2    
  22 C22           -1.9266    -4.2955    -6.5315 C.3     
  23 C23            3.3652    -2.5735    -7.8314 C.3     
  24 C24            3.2872    -4.0823    -7.5853 C.3     
  25 C25           -3.4117    -4.3799    -6.8898 C.3     
  26 C26           -2.3657    -4.2231    -7.9953 C.3     
  27 O27           -1.7782    -2.6865    -4.4082 O.2     
  28 O28           -1.4940    -1.6651    -6.6435 O.2     
  29 C29            2.5896    -2.0114    -9.0245 C.3     
  30 C30            3.5707    -1.4106   -10.0332 C.3     
  31 C31            2.2694    -2.3508     0.8371 C.ar    
  32 C32            2.9115    -2.2949     2.0962 C.ar    
  33 C33            1.3426    -3.3375     0.6252 C.ar    
  34 C34            1.0606    -4.2579     1.6440 C.ar    
  35 N35            1.6699    -4.1999     2.8161 N.ar    
  36 C36            2.5793    -3.2569     3.0819 C.ar    
  37 C37            0.0588    -5.3174     1.4027 C.2     
  38 S38           -0.8423    -5.5508    -0.0931 S.3     
  39 C39            3.2207    -3.2060     4.3319 C.ar    
  40 C40            4.1539    -2.2236     4.5779 C.ar    
  41 C41            4.4700    -1.2773     3.5990 C.ar    
  42 C42            3.8660    -1.3074     2.3795 C.ar    
  43 Cl43           2.8383    -4.3740     5.5579 Cl      
  44 O44            4.7739    -2.1735     5.7859 O.3     
  45 C45            5.7321    -1.1313     5.9805 C.3     
  46 N46           -0.2956    -6.2318     2.2599 N.2     
  47 C47           -1.2029    -7.0948     1.8715 C.2     
  48 C48           -1.6637    -6.9355     0.6242 C.2     
  49 C49           -1.6950    -8.1986     2.7718 C.3     
  50 C50           -2.9738    -7.7471     3.4801 C.3     
  51 C51           -1.9883    -9.4460     1.9358 C.3     
  52 C52            3.2262     3.4683    -4.1259 C.3     
  53 C53            4.4571     5.8051    -2.7368 C.3     
  54 C54            6.3200    -1.2356     7.3892 C.3     
  55 N55            7.0777    -2.4881     7.5120 N.3     
  56 C56            7.8509    -2.5157     8.7621 C.3     
  57 C57            7.9572    -2.6878     6.3510 C.3     
  58 C58            8.6813    -4.0295     6.4909 C.3     
  59 O59            9.4020    -4.0500     7.7260 O.3     
  60 C60            8.5760    -3.8590     8.8778 C.3     
  61 H61            1.7098     2.3782    -2.6260 H       
  62 H62            0.8310    -1.9203    -1.1911 H       
  63 H63            1.0339    -0.2002    -2.8611 H       
  64 H64            4.4743    -1.8088    -3.1723 H       
  65 H65            3.2624    -3.1775    -1.7866 H       
  66 H66            1.8851    -3.0945    -2.9266 H       
  67 H67            3.5677    -3.6524    -4.8668 H       
  68 H68            2.3479     0.7242    -0.2730 H       
  69 H69            0.7071     1.0791    -0.8592 H       
  70 H70            4.2350     2.0479    -1.1548 H       
  71 H71            5.1422     3.2442    -3.1670 H       
  72 H72            2.8617     4.7204    -1.7783 H       
  73 H73            4.4695     4.4457    -1.0657 H       
  74 H74            0.7232    -3.0174    -4.7678 H       
  75 H75           -1.4367    -5.2101    -6.1973 H       
  76 H76            4.3077    -2.0746    -7.6060 H       
  77 H77            4.1786    -4.5758    -7.1981 H       
  78 H78            2.6834    -4.6739    -8.2734 H       
  79 H79           -3.8987    -5.3502    -6.7917 H       
  80 H80           -4.0348    -3.5156    -6.6601 H       
  81 H81           -2.3006    -3.2555    -8.4930 H       
  82 H82           -2.1645    -5.0901    -8.6246 H       
  83 H83            2.0243    -2.8126    -9.5005 H       
  84 H84            1.9035    -1.2377    -8.6800 H       
  85 H85            4.1360    -0.6094    -9.5573 H       
  86 H86            4.2568    -2.1843   -10.3778 H       
  87 H87            3.0182    -1.0102   -10.8832 H       
  88 H88            0.8308    -3.4056    -0.3234 H       
  89 H89            5.2047    -0.5148     3.8118 H       
  90 H90            4.1196    -0.5701     1.6321 H       
  91 H91            6.5307    -1.2300     5.2452 H       
  92 H92            5.2455    -0.1633     5.8606 H       
  93 H93           -2.4089    -7.5500     0.1410 H       
  94 H94           -0.9310    -8.4300     3.5140 H       
  95 H95           -3.7379    -7.5157     2.7380 H       
  96 H96           -3.3298    -8.5454     4.1313 H       
  97 H97           -2.7649    -6.8584     4.0757 H       
  98 H98           -1.0773    -9.7677     1.4312 H       
  99 H99           -2.3443   -10.2443     2.5870 H       
 100 H100          -2.7524    -9.2146     1.1937 H       
 101 H101           3.5265     4.3541    -4.6857 H       
 102 H102           3.3520     2.5839    -4.7506 H       
 103 H103           2.1803     3.5607    -3.8333 H       
 104 H104           4.3314     6.6894    -2.1122 H       
 105 H105           5.5153     5.6626    -2.9562 H       
 106 H106           3.9075     5.9373    -3.6688 H       
 107 H107           6.9839    -0.3901     7.5693 H       
 108 H108           5.5127    -1.2261     8.1214 H       
 109 H109           8.5817    -1.7069     8.7560 H       
 110 H110           7.1769    -2.3917     9.6097 H       
 111 H111           7.3609    -2.6895     5.4386 H       
 112 H112           8.6897    -1.8818     6.3064 H       
 113 H113           7.9519    -4.8394     6.4816 H       
 114 H114           9.3770    -4.1558     5.6614 H       
 115 H115           9.1956    -3.8621     9.7746 H       
 116 H116           7.8436    -4.6640     8.9379 H       
@<TRIPOS>BOND
   1    1   11 1
   2    1   12 1
   3    1   61 1
   4    2    3 1
   5    2    7 1
   6    2    6 1
   7    2   62 1
   8    3    4 1
   9    3   11 1
  10    3   63 1
  11    4    5 1
  12    4   13 am
  13    5    6 1
  14    5    8 1
  15    5   64 1
  16    6   65 1
  17    6   66 1
  18    7   31 1
  19    8    9 2
  20    8   10 am
  21   10   17 1
  22   10   67 1
  23   11   68 1
  24   11   69 1
  25   12   13 1
  26   12   15 1
  27   12   70 1
  28   13   14 2
  29   15   16 1
  30   15   52 1
  31   15   71 1
  32   16   53 1
  33   16   72 1
  34   16   73 1
  35   17   18 1
  36   17   23 1
  37   17   24 1
  38   18   19 am
  39   18   20 2
  40   19   21 am
  41   19   74 1
  42   21   22 1
  43   21   27 2
  44   21   28 2
  45   22   25 1
  46   22   26 1
  47   22   75 1
  48   23   24 1
  49   23   29 1
  50   23   76 1
  51   24   77 1
  52   24   78 1
  53   25   26 1
  54   25   79 1
  55   25   80 1
  56   26   81 1
  57   26   82 1
  58   29   30 1
  59   29   83 1
  60   29   84 1
  61   30   85 1
  62   30   86 1
  63   30   87 1
  64   31   32 ar
  65   31   33 ar
  66   32   36 ar
  67   32   42 ar
  68   33   34 ar
  69   33   88 1
  70   34   35 ar
  71   34   37 1
  72   35   36 ar
  73   36   39 ar
  74   37   46 2
  75   37   38 1
  76   38   48 1
  77   39   40 ar
  78   39   43 1
  79   40   41 ar
  80   40   44 1
  81   41   42 ar
  82   41   89 1
  83   42   90 1
  84   44   45 1
  85   45   54 1
  86   45   91 1
  87   45   92 1
  88   46   47 1
  89   47   48 2
  90   47   49 1
  91   48   93 1
  92   49   50 1
  93   49   51 1
  94   49   94 1
  95   50   95 1
  96   50   96 1
  97   50   97 1
  98   51   98 1
  99   51   99 1
 100   51  100 1
 101   52  101 1
 102   52  102 1
 103   52  103 1
 104   53  104 1
 105   53  105 1
 106   53  106 1
 107   54   55 1
 108   54  107 1
 109   54  108 1
 110   55   56 1
 111   55   57 1
 112   56   60 1
 113   56  109 1
 114   56  110 1
 115   57   58 1
 116   57  111 1
 117   57  112 1
 118   58   59 1
 119   58  113 1
 120   58  114 1
 121   59   60 1
 122   60  115 1
 123   60  116 1

#	End of record

