#	Name: ASD05420012
#	Creating user name:	WinNT
#	Creation time:	15. 06. 2019 20:59

#	Modifying user name:	WinNT
#	Modification time:	15. 06. 2019 20:59

#	Program:	/corina/corina34_cracker 3.40 0067  02.08.2006

@<TRIPOS>MOLECULE
ASD05420012
  40   41    0    0    0
SMALL
NO_CHARGES


@<TRIPOS>ATOM
   1 C1            -0.1030     1.2034    -0.5875 C.2     
   2 N2             0.0021    -0.0041     0.0020 N.am    
   3 O3             0.8583     1.6915    -1.1483 O.2     
   4 O4            -1.2748     1.8664    -0.5600 O.3     
   5 C5             1.1962    -0.7356    -0.1037 C.ar    
   6 C6             1.1744    -2.1255     0.0030 C.ar    
   7 C7             2.3545    -2.8456    -0.1017 C.ar    
   8 C8             3.5551    -2.1815    -0.3123 C.ar    
   9 C9             3.5743    -0.7956    -0.4184 C.ar    
  10 C10            2.3967    -0.0762    -0.3199 C.ar    
  11 N11            4.7478    -2.9082    -0.4177 N.pl3   
  12 C12            4.7280    -4.3688    -0.3056 C.3     
  13 C13            6.1294    -4.9030    -0.4533 C.ar    
  14 C14            6.9303    -5.0590     0.6626 C.ar    
  15 C15            8.2154    -5.5492     0.5284 C.ar    
  16 C16            8.7007    -5.8841    -0.7244 C.ar    
  17 C17            7.8977    -5.7273    -1.8413 C.ar    
  18 C18            6.6110    -5.2419    -1.7040 C.ar    
  19 F19            9.9570    -6.3630    -0.8568 F       
  20 F20            4.7436    -0.1508    -0.6234 F       
  21 N21           -0.0379    -2.7934     0.2160 N.pl3   
  22 C22           -1.3149     3.1615    -1.2152 C.3     
  23 C23           -2.7174     3.7580    -1.0806 C.3     
  24 H24           -0.7471    -0.3678     0.4993 H       
  25 H25            2.3397    -3.9223    -0.0190 H       
  26 H26            2.4130     1.0001    -0.4073 H       
  27 H27            5.5869    -2.4444    -0.5649 H       
  28 H28            4.3317    -4.6530     0.6693 H       
  29 H29            4.0959    -4.7849    -1.0901 H       
  30 H30            6.5516    -4.7974     1.6397 H       
  31 H31            8.8410    -5.6708     1.4003 H       
  32 H32            8.2752    -5.9882    -2.8190 H       
  33 H33            5.9830    -5.1234    -2.5746 H       
  34 H34           -0.8631    -2.2889     0.2894 H       
  35 H35           -0.0523    -3.7604     0.2901 H       
  36 H36           -0.5902     3.8280    -0.7474 H       
  37 H37           -1.0705     3.0424    -2.2708 H       
  38 H38           -2.7475     4.7302    -1.5724 H       
  39 H39           -3.4421     3.0916    -1.5483 H       
  40 H40           -2.9618     3.8771    -0.0250 H       
@<TRIPOS>BOND
   1    1    2 am
   2    1    3 2
   3    1    4 1
   4    2    5 1
   5    2   24 1
   6    4   22 1
   7    5    6 ar
   8    5   10 ar
   9    6    7 ar
  10    6   21 1
  11    7    8 ar
  12    7   25 1
  13    8    9 ar
  14    8   11 1
  15    9   10 ar
  16    9   20 1
  17   10   26 1
  18   11   12 1
  19   11   27 1
  20   12   13 1
  21   12   28 1
  22   12   29 1
  23   13   14 ar
  24   13   18 ar
  25   14   15 ar
  26   14   30 1
  27   15   16 ar
  28   15   31 1
  29   16   17 ar
  30   16   19 1
  31   17   18 ar
  32   17   32 1
  33   18   33 1
  34   21   34 1
  35   21   35 1
  36   22   23 1
  37   22   36 1
  38   22   37 1
  39   23   38 1
  40   23   39 1
  41   23   40 1

#	End of record

