#	Name: ASD01230861
#	Creating user name:	WinNT
#	Creation time:	15. 06. 2019 19:15

#	Modifying user name:	WinNT
#	Modification time:	15. 06. 2019 19:15

#	Program:	/corina/corina34_cracker 3.40 0067  02.08.2006

@<TRIPOS>MOLECULE
ASD01230861
  44   46    0    0    0
SMALL
NO_CHARGES


@<TRIPOS>ATOM
   1 S1            -0.0253     1.6382    -0.0166 S.o2    
   2 N2            -0.0002    -0.0090    -0.0144 N.am    
   3 C3             1.0569    -0.7142     0.0675 C.2     
   4 N4             2.3214    -0.2010     0.2060 N.pl3   
   5 C5             2.5487     1.1329     0.7505 C.3     
   6 C6             1.7129     2.1495    -0.0297 C.3     
   7 C7             0.9705    -2.2313     0.0272 C.3     
   8 C8             2.0432    -2.7741     0.9748 C.3     
   9 C9             3.4386    -2.3711     0.5174 C.3     
  10 C10            3.4443    -1.0404    -0.2250 C.3     
  11 C11           -0.3932    -2.6795     0.4861 C.ar    
  12 C12           -1.2019    -3.4105    -0.3644 C.ar    
  13 C13           -2.4524    -3.8225     0.0539 C.ar    
  14 C14           -2.8965    -3.5021     1.3286 C.ar    
  15 C15           -2.0832    -2.7685     2.1800 C.ar    
  16 C16           -0.8313    -2.3638     1.7590 C.ar    
  17 O17           -4.1265    -3.9059     1.7422 O.3     
  18 C18           -4.9561    -4.5530     0.7753 C.3     
  19 C19           -4.6144    -6.0436     0.7261 C.3     
  20 C20           -6.4252    -4.3792     1.1657 C.3     
  21 O21           -0.6499     1.9738    -1.2480 O.2     
  22 O22           -0.6322     1.9773     1.2228 O.2     
  23 H23            2.2568     1.1516     1.8005 H       
  24 H24            3.6051     1.3865     0.6621 H       
  25 H25            2.0691     2.1997    -1.0586 H       
  26 H26            1.8066     3.1307     0.4357 H       
  27 H27            1.1569    -2.5866    -0.9863 H       
  28 H28            1.8678    -2.3800     1.9758 H       
  29 H29            1.9770    -3.8617     1.0036 H       
  30 H30            4.0869    -2.2913     1.3901 H       
  31 H31            3.8312    -3.1451    -0.1421 H       
  32 H32            3.3630    -1.2264    -1.2960 H       
  33 H33            4.3802    -0.5199    -0.0218 H       
  34 H34           -0.8558    -3.6593    -1.3567 H       
  35 H35           -3.0838    -4.3932    -0.6109 H       
  36 H36           -2.4268    -2.5179     3.1728 H       
  37 H37           -0.1959    -1.7967     2.4231 H       
  38 H38           -4.7857    -4.1086    -0.2053 H       
  39 H39           -4.7848    -6.4880     1.7066 H       
  40 H40           -5.2472    -6.5372    -0.0115 H       
  41 H41           -3.5678    -6.1674     0.4479 H       
  42 H42           -6.6686    -3.3173     1.2008 H       
  43 H43           -7.0580    -4.8728     0.4282 H       
  44 H44           -6.5956    -4.8236     2.1463 H       
@<TRIPOS>BOND
   1    1    2 am
   2    1    6 1
   3    1   21 2
   4    1   22 2
   5    2    3 2
   6    3    4 1
   7    3    7 1
   8    4    5 1
   9    4   10 1
  10    5    6 1
  11    5   23 1
  12    5   24 1
  13    6   25 1
  14    6   26 1
  15    7    8 1
  16    7   11 1
  17    7   27 1
  18    8    9 1
  19    8   28 1
  20    8   29 1
  21    9   10 1
  22    9   30 1
  23    9   31 1
  24   10   32 1
  25   10   33 1
  26   11   12 ar
  27   11   16 ar
  28   12   13 ar
  29   12   34 1
  30   13   14 ar
  31   13   35 1
  32   14   15 ar
  33   14   17 1
  34   15   16 ar
  35   15   36 1
  36   16   37 1
  37   17   18 1
  38   18   19 1
  39   18   20 1
  40   18   38 1
  41   19   39 1
  42   19   40 1
  43   19   41 1
  44   20   42 1
  45   20   43 1
  46   20   44 1

#	End of record

