#	Name: ASD03180001
#	Creating user name:	WinNT
#	Creation time:	15. 06. 2019 20:33

#	Modifying user name:	WinNT
#	Modification time:	15. 06. 2019 20:33

#	Program:	/corina/corina34_cracker 3.40 0067  02.08.2006

@<TRIPOS>MOLECULE
ASD03180001
  59   62    0    0    0
SMALL
NO_CHARGES


@<TRIPOS>ATOM
   1 O1            -0.2837     0.3725     0.1886 O.3     
   2 C2            -0.0595    -1.0539     0.3769 C.3     
   3 C3             0.9978    -1.2987     1.4548 C.3     
   4 C4             2.2858    -0.5228     1.1247 C.3     
   5 C5             3.3036    -0.7062     2.2243 C.3     
   6 C6             4.5215     0.2116     2.1492 C.3     
   7 C7             4.0987     1.6685     1.9772 C.3     
   8 C8             3.1210     1.8187     0.8047 C.3     
   9 C9             1.8937     0.9658     1.0748 C.3     
  10 C10            0.8329     1.1232     0.0154 C.2     
  11 C11            5.2868     0.0520     3.4751 C.3     
  12 C12            5.7867    -1.3804     3.6499 C.3     
  13 C13            4.6306    -2.3822     3.6343 C.3     
  14 C14            3.7852    -2.1254     2.3955 C.2     
  15 C15            6.4685     0.9884     3.4878 C.2     
  16 O16            6.6957     1.6875     2.5289 O.2     
  17 O17            7.2682     1.0454     4.5644 O.3     
  18 O18            3.5296    -3.0171     1.6330 O.2     
  19 O19            0.9618     1.8681    -0.9218 O.2     
  20 C20            2.7783    -0.9783    -0.2443 C.3     
  21 C21            5.4752    -0.1732     1.0200 C.3     
  22 O22           -3.2940    -2.0127     1.7580 O.3     
  23 C23           -2.2921    -1.1316     1.6041 C.2     
  24 C24           -1.3554    -1.6867     0.8143 C.2     
  25 C25           -1.8203    -2.9775     0.4727 C.2     
  26 C26           -3.0132    -3.1339     1.0741 C.2     
  27 O27            5.1546    -3.7346     3.5847 O.3     
  28 C28            4.4170    -4.6955     4.1630 C.2     
  29 O29            3.3681    -4.4152     4.6931 O.2     
  30 C30            4.8972    -6.1239     4.1510 C.3     
  31 C31            8.3867     1.9695     4.5066 C.3     
  32 H32            1.4685     1.2444     2.0452 H       
  33 H33            2.7811    -0.4487     3.1805 H       
  34 H34            0.2393    -1.5054    -0.5666 H       
  35 H35            0.6237    -0.9631     2.4221 H       
  36 H36            1.2308    -2.3626     1.5046 H       
  37 H37            3.6197     2.0179     2.8926 H       
  38 H38            4.9753     2.2868     1.7714 H       
  39 H39            2.8172     2.8712     0.7370 H       
  40 H40            3.5993     1.5433    -0.1285 H       
  41 H41            4.6154     0.3087     4.2957 H       
  42 H42            6.5140    -1.6386     2.8854 H       
  43 H43            6.2914    -1.4540     4.6246 H       
  44 H44            4.0162    -2.2551     4.5230 H       
  45 H45            1.9615    -0.9163    -0.9634 H       
  46 H46            3.5971    -0.3357    -0.5681 H       
  47 H47            3.1286    -2.0085    -0.1801 H       
  48 H48            5.0144     0.0599     0.0601 H       
  49 H49            6.4045     0.3871     1.1226 H       
  50 H50            5.6872    -1.2411     1.0715 H       
  51 H51           -2.2465    -0.1446     2.0401 H       
  52 H52           -1.3147    -3.6993    -0.1517 H       
  53 H53           -3.6392    -4.0122     1.0167 H       
  54 H54            5.8591    -6.1881     4.6598 H       
  55 H55            4.1719    -6.7554     4.6641 H       
  56 H56            5.0081    -6.4613     3.1205 H       
  57 H57            8.9503     1.9165     5.4381 H       
  58 H58            9.0362     1.7021     3.6732 H       
  59 H59            8.0131     2.9837     4.3652 H       
@<TRIPOS>BOND
   1    1    2 1
   2    1   10 1
   3    2    3 1
   4    2   24 1
   5    2   34 1
   6    3    4 1
   7    3   35 1
   8    3   36 1
   9    4    5 1
  10    4   20 1
  11    4    9 1
  12    5    6 1
  13    5   14 1
  14    5   33 1
  15    6    7 1
  16    6   21 1
  17    6   11 1
  18    7    8 1
  19    7   37 1
  20    7   38 1
  21    8    9 1
  22    8   39 1
  23    8   40 1
  24    9   10 1
  25    9   32 1
  26   10   19 2
  27   11   12 1
  28   11   15 1
  29   11   41 1
  30   12   13 1
  31   12   42 1
  32   12   43 1
  33   13   14 1
  34   13   27 1
  35   13   44 1
  36   14   18 2
  37   15   16 2
  38   15   17 1
  39   17   31 1
  40   20   45 1
  41   20   46 1
  42   20   47 1
  43   21   48 1
  44   21   49 1
  45   21   50 1
  46   22   23 1
  47   22   26 1
  48   23   24 2
  49   23   51 1
  50   24   25 1
  51   25   26 2
  52   25   52 1
  53   26   53 1
  54   27   28 1
  55   28   29 2
  56   28   30 1
  57   30   54 1
  58   30   55 1
  59   30   56 1
  60   31   57 1
  61   31   58 1
  62   31   59 1

#	End of record

