#	Name: ASD01918380
#	Creating user name:	WinNT
#	Creation time:	15. 06. 2019 20:11

#	Modifying user name:	WinNT
#	Modification time:	15. 06. 2019 20:11

#	Program:	/corina/corina34_cracker 3.40 0067  02.08.2006

@<TRIPOS>MOLECULE
ASD01918380
  44   45    0    0    0
SMALL
NO_CHARGES


@<TRIPOS>ATOM
   1 Cl1            0.0000     0.0000     0.0000 Cl      
   2 H2             0.0000     1.3700     0.0000 H       
   3 C3             7.1355    14.3269     8.3096 C.3     
   4 C4             7.1563    12.7970     8.3012 C.3     
   5 H5             6.1337    12.4197     8.3090 H       
   6 N6             7.8439    12.3233     7.0926 N.3     
   7 C7             7.9659    10.8594     7.0960 C.3     
   8 C8             7.1598    12.7917     5.8799 C.3     
   9 C9             7.8852    12.2978     9.5221 C.2     
  10 N10            7.3426    11.7634    10.5875 N.2     
  11 C11            8.3737    11.4707    11.4123 C.2     
  12 N12            9.4711    11.8413    10.8048 N.2     
  13 O13            9.2073    12.3120     9.7185 O.3     
  14 C14            8.2779    10.8468    12.7548 C.ar    
  15 C15            9.4399    10.6132    13.4887 C.ar    
  16 C16            9.3435    10.0324    14.7380 C.ar    
  17 C17            8.0700     9.6989    15.2210 C.ar    
  18 C18            6.9506     9.9649    14.4247 C.ar    
  19 N19            7.0864    10.5237    13.2429 N.ar    
  20 C20            7.9173     9.0944    16.5102 C.1     
  21 C21            7.7922     8.5988    17.5671 C.1     
  22 C22            7.6395     7.9944    18.8562 C.ar    
  23 C23            8.7618     7.7367    19.6479 C.ar    
  24 C24            8.6084     7.1546    20.8891 C.ar    
  25 C25            7.3471     6.8255    21.3520 C.ar    
  26 C26            6.2284     7.0772    20.5729 C.ar    
  27 F27            5.0000     6.7528    21.0322 F       
  28 C28            6.3671     7.6648    19.3306 C.ar    
  29 H29            8.1581    14.7042     8.3019 H       
  30 H30            6.6084    14.6879     7.4266 H       
  31 H31            6.6254    14.6784     9.2064 H       
  32 H32            6.9725    10.4121     7.1310 H       
  33 H33            8.4785    10.5354     6.1902 H       
  34 H34            8.5372    10.5444     7.9692 H       
  35 H35            7.1450    13.8816     5.8691 H       
  36 H36            7.6895    12.4268     5.0000 H       
  37 H37            6.1372    12.4144     5.8709 H       
  38 H38           10.4045    10.8829    13.0847 H       
  39 H39           10.2271     9.8396    15.3283 H       
  40 H40            5.9649     9.7122    14.7865 H       
  41 H41            9.7476     7.9925    19.2885 H       
  42 H42            9.4756     6.9550    21.5011 H       
  43 H43            7.2334     6.3700    22.3246 H       
  44 H44            5.4949     7.8653    18.7260 H       
@<TRIPOS>BOND
   1    1    2 1
   2    3    4 1
   3    3   29 1
   4    3   30 1
   5    3   31 1
   6    4    5 1
   7    4    6 1
   8    4    9 1
   9    6    7 1
  10    6    8 1
  11    7   32 1
  12    7   33 1
  13    7   34 1
  14    8   35 1
  15    8   36 1
  16    8   37 1
  17    9   13 1
  18    9   10 2
  19   10   11 1
  20   11   12 2
  21   11   14 1
  22   12   13 1
  23   14   19 ar
  24   14   15 ar
  25   15   16 ar
  26   15   38 1
  27   16   17 ar
  28   16   39 1
  29   17   18 ar
  30   17   20 1
  31   18   19 ar
  32   18   40 1
  33   20   21 3
  34   21   22 1
  35   22   28 ar
  36   22   23 ar
  37   23   24 ar
  38   23   41 1
  39   24   25 ar
  40   24   42 1
  41   25   26 ar
  42   25   43 1
  43   26   27 1
  44   26   28 ar
  45   28   44 1

#	End of record

