#	Name: ASD00170141
#	Creating user name:	WinNT
#	Creation time:	15. 06. 2019 18:31

#	Modifying user name:	WinNT
#	Modification time:	15. 06. 2019 18:31

#	Program:	/corina/corina34_cracker 3.40 0067  02.08.2006

@<TRIPOS>MOLECULE
ASD00170141
  41   45    0    0    0
SMALL
NO_CHARGES


@<TRIPOS>ATOM
   1 C1            -0.0182     1.4914     0.0102 C.2     
   2 C2             0.0021    -0.0041     0.0020 C.ar    
   3 C3             1.3191    -0.4523    -0.0130 C.ar    
   4 C4             2.1958     0.7739    -0.0148 C.3     
   5 C5             1.2473     1.9527     0.0006 C.2     
   6 S6             1.2222     3.7155     0.0099 S.3     
   7 C7            -0.5366     3.6919     0.0263 C.2     
   8 N8            -0.9504     2.4701     0.0195 N.2     
   9 C9            -1.0454    -0.9281     0.0075 C.ar    
  10 C10           -0.7705    -2.2773    -0.0020 C.ar    
  11 C11            0.5516    -2.7232    -0.0166 C.ar    
  12 C12            1.5978    -1.7991    -0.0235 C.ar    
  13 N13           -1.3514     4.8122     0.0404 N.pl3   
  14 C14            0.8446    -4.1760    -0.0262 C.ar    
  15 C15            1.7274    -4.6912    -0.9559 C.ar    
  16 C16            2.0021    -6.0678    -0.9608 C.ar    
  17 C17            1.3702    -6.9110    -0.0116 C.ar    
  18 C18            0.4764    -6.3601     0.9230 C.ar    
  19 C19            0.2253    -5.0205     0.9168 C.ar    
  20 C20            2.8947    -6.6266    -1.8928 C.ar    
  21 C21            3.1400    -7.9652    -1.8722 C.ar    
  22 C22            2.5187    -8.7937    -0.9396 C.ar    
  23 C23            1.6494    -8.2884    -0.0221 C.ar    
  24 O24           -0.6394    -4.4951     1.8232 O.3     
  25 C25           -1.2434    -5.4037     2.7460 C.3     
  26 H26            2.8273     0.7869     0.8736 H       
  27 H27            2.8102     0.7965    -0.9148 H       
  28 H28           -2.0694    -0.5849     0.0195 H       
  29 H29           -1.5801    -2.9921     0.0022 H       
  30 H30            2.6224    -2.1404    -0.0347 H       
  31 H31           -0.9573     5.6986     0.0418 H       
  32 H32           -2.3160     4.7103     0.0490 H       
  33 H33            2.2024    -4.0394    -1.6742 H       
  34 H34           -0.0081    -6.9974     1.6479 H       
  35 H35            3.3828    -5.9967    -2.6217 H       
  36 H36            3.8259    -8.3915    -2.5892 H       
  37 H37            2.7304    -9.8528    -0.9447 H       
  38 H38            1.1756    -8.9432     0.6943 H       
  39 H39           -1.9098    -4.8557     3.4121 H       
  40 H40           -1.8139    -6.1531     2.1973 H       
  41 H41           -0.4673    -5.8955     3.3324 H       
@<TRIPOS>BOND
   1    1    2 1
   2    1    5 2
   3    1    8 1
   4    2    3 ar
   5    2    9 ar
   6    3    4 1
   7    3   12 ar
   8    4    5 1
   9    4   26 1
  10    4   27 1
  11    5    6 1
  12    6    7 1
  13    7    8 2
  14    7   13 1
  15    9   10 ar
  16    9   28 1
  17   10   11 ar
  18   10   29 1
  19   11   12 ar
  20   11   14 1
  21   12   30 1
  22   13   31 1
  23   13   32 1
  24   14   15 ar
  25   14   19 ar
  26   15   16 ar
  27   15   33 1
  28   16   17 ar
  29   16   20 ar
  30   17   18 ar
  31   17   23 ar
  32   18   19 ar
  33   18   34 1
  34   19   24 1
  35   20   21 ar
  36   20   35 1
  37   21   22 ar
  38   21   36 1
  39   22   23 ar
  40   22   37 1
  41   23   38 1
  42   24   25 1
  43   25   39 1
  44   25   40 1
  45   25   41 1

#	End of record

