#	Name: ASD01815945
#	Creating user name:	WinNT
#	Creation time:	15. 06. 2019 19:34

#	Modifying user name:	WinNT
#	Modification time:	15. 06. 2019 19:34

#	Program:	/corina/corina34_cracker 3.40 0067  02.08.2006

@<TRIPOS>MOLECULE
ASD01815945
  50   55    0    0    0
SMALL
NO_CHARGES


@<TRIPOS>ATOM
   1 C1             1.1842     2.2597    -0.5288 C.ar    
   2 C2             0.8008     0.9286    -0.5124 C.ar    
   3 C3             1.7394    -0.0724    -0.3553 C.ar    
   4 C4             3.0862     0.2502    -0.2118 C.ar    
   5 C5             3.4721     1.6003    -0.2293 C.ar    
   6 C6             2.5159     2.6012    -0.3880 C.ar    
   7 N7             4.0321    -0.7491    -0.0535 N.pl3   
   8 C8             5.3432    -0.4983     0.0895 C.2     
   9 C9             5.8375     0.7825     0.0880 C.2     
  10 C10            4.9039     1.9200    -0.0758 C.2     
  11 C11            7.1586     1.3897     0.2160 C.2     
  12 N12            6.9692     2.7242     0.1311 N.am    
  13 N13            5.6131     3.0117    -0.0430 N.2     
  14 C14            7.9872     3.6832     0.2062 C.ar    
  15 O15            8.2206     0.8085     0.3696 O.2     
  16 C16            3.5814    -2.1429    -0.0411 C.3     
  17 C17            3.4352    -2.6362    -1.4576 C.ar    
  18 C18            4.5171    -2.5904    -2.3207 C.ar    
  19 C19            4.3844    -3.0430    -3.6216 C.ar    
  20 C20            3.1661    -3.5424    -4.0595 C.ar    
  21 C21            2.0837    -3.5866    -3.1908 C.ar    
  22 C22            2.2226    -3.1390    -1.8916 C.ar    
  23 F23            2.8889     3.8996    -0.4046 F       
  24 F24            1.3502    -1.3660    -0.3404 F       
  25 C25            8.7041     4.0279    -0.9318 C.ar    
  26 C26            9.7075     4.9740    -0.8546 C.ar    
  27 C27            9.9995     5.5787     0.3543 C.ar    
  28 C28            9.2887     5.2390     1.4906 C.ar    
  29 C29            8.2787     4.2967     1.4199 C.ar    
  30 F30            7.5840     3.9647     2.5300 F       
  31 F31            5.7024    -2.1034    -1.8927 F       
  32 N32            3.0281    -4.0015    -5.3775 N.pl3   
  33 C33            1.8944    -4.5126    -5.9309 C.2     
  34 C34            2.2100    -4.8245    -7.2098 C.2     
  35 N35            3.4962    -4.4961    -7.3756 N.2     
  36 N36            3.9500    -4.0076    -6.2759 N.2     
  37 H37            0.4407     3.0326    -0.6564 H       
  38 H38           -0.2422     0.6712    -0.6231 H       
  39 H39            6.0268    -1.3258     0.2092 H       
  40 H40            4.3134    -2.7569     0.4836 H       
  41 H41            2.6198    -2.2093     0.4678 H       
  42 H42            5.2277    -3.0072    -4.2953 H       
  43 H43            1.1347    -3.9750    -3.5298 H       
  44 H44            1.3805    -3.1739    -1.2163 H       
  45 H45            8.4775     3.5563    -1.8766 H       
  46 H46           10.2652     5.2417    -1.7399 H       
  47 H47           10.7850     6.3177     0.4111 H       
  48 H48            9.5195     5.7129     2.4333 H       
  49 H49            0.9375    -4.6434    -5.4476 H       
  50 H50            1.5525    -5.2546    -7.9509 H       
@<TRIPOS>BOND
   1    1    2 ar
   2    1    6 ar
   3    1   37 1
   4    2    3 ar
   5    2   38 1
   6    3    4 ar
   7    3   24 1
   8    4    5 ar
   9    4    7 1
  10    5    6 ar
  11    5   10 1
  12    6   23 1
  13    7    8 1
  14    7   16 1
  15    8    9 2
  16    8   39 1
  17    9   10 1
  18    9   11 1
  19   10   13 2
  20   11   12 am
  21   11   15 2
  22   12   13 1
  23   12   14 1
  24   14   25 ar
  25   14   29 ar
  26   16   17 1
  27   16   40 1
  28   16   41 1
  29   17   18 ar
  30   17   22 ar
  31   18   19 ar
  32   18   31 1
  33   19   20 ar
  34   19   42 1
  35   20   21 ar
  36   20   32 1
  37   21   22 ar
  38   21   43 1
  39   22   44 1
  40   25   26 ar
  41   25   45 1
  42   26   27 ar
  43   26   46 1
  44   27   28 ar
  45   27   47 1
  46   28   29 ar
  47   28   48 1
  48   29   30 1
  49   32   33 1
  50   32   36 1
  51   33   34 2
  52   33   49 1
  53   34   35 1
  54   34   50 1
  55   35   36 2

#	End of record

