#	Name: ASD01310020
#	Creating user name:	WinNT
#	Creation time:	15. 06. 2019 19:15

#	Modifying user name:	WinNT
#	Modification time:	15. 06. 2019 19:15

#	Program:	/corina/corina34_cracker 3.40 0067  02.08.2006

@<TRIPOS>MOLECULE
ASD01310020
  20   19    0    0    0
SMALL
NO_CHARGES


@<TRIPOS>ATOM
   1 O1            -0.0161     1.3381     0.0094 O.3     
   2 C2             0.0021    -0.0041     0.0020 C.2     
   3 C3            -1.2926    -0.7753     0.0102 C.3     
   4 O4             1.0565    -0.5939    -0.0112 O.2     
   5 C5            -0.9927    -2.2755    -0.0007 C.3     
   6 C6            -2.3072    -3.0585     0.0077 C.3     
   7 C7            -2.0157    -4.5309    -0.1269 C.2     
   8 O8            -3.0246    -5.4160    -0.1434 O.3     
   9 O9            -0.8738    -4.9147    -0.2199 O.2     
  10 C10           -3.0448    -2.8027     1.3235 C.3     
  11 H11            0.8394     1.7888     0.0037 H       
  12 H12           -1.8592    -0.5245     0.9070 H       
  13 H13           -1.8762    -0.5150    -0.8728 H       
  14 H14           -0.4261    -2.5263    -0.8975 H       
  15 H15           -0.4091    -2.5358     0.8824 H       
  16 H16           -2.9289    -2.7335    -0.8265 H       
  17 H17           -2.7883    -6.3496    -0.2315 H       
  18 H18           -3.2556    -1.7378     1.4208 H       
  19 H19           -3.9812    -3.3605     1.3294 H       
  20 H20           -2.4230    -3.1277     2.1577 H       
@<TRIPOS>BOND
   1    1    2 1
   2    1   11 1
   3    2    3 1
   4    2    4 2
   5    3    5 1
   6    3   12 1
   7    3   13 1
   8    5    6 1
   9    5   14 1
  10    5   15 1
  11    6    7 1
  12    6   10 1
  13    6   16 1
  14    7    8 1
  15    7    9 2
  16    8   17 1
  17   10   18 1
  18   10   19 1
  19   10   20 1

#	End of record

