#	Name: ASD01811076
#	Creating user name:	WinNT
#	Creation time:	15. 06. 2019 19:26

#	Modifying user name:	WinNT
#	Modification time:	15. 06. 2019 19:26

#	Program:	/corina/corina34_cracker 3.40 0067  02.08.2006

@<TRIPOS>MOLECULE
ASD01811076
  40   43    0    0    0
SMALL
NO_CHARGES


@<TRIPOS>ATOM
   1 C1            -0.0167     1.3786     0.0096 C.2     
   2 C2             0.0021    -0.0041     0.0020 C.2     
   3 N3            -1.2005    -0.7055     0.0097 N.pl3   
   4 C4            -2.3926    -0.1023     0.0243 C.2     
   5 C5            -2.4965     1.2739     0.0323 C.2     
   6 C6            -1.2596     2.0677     0.0305 C.2     
   7 C7            -1.1569    -2.1698     0.0010 C.3     
   8 C8            -1.1281    -2.6800     1.4187 C.ar    
   9 O9            -1.2988     3.2879     0.0377 O.2     
  10 C10           -3.8117     1.9296     0.0473 C.2     
  11 O11           -4.8253     1.2585     0.0530 O.2     
  12 O12           -3.8940     3.2751     0.0549 O.3     
  13 S13            1.6315     1.9957    -0.0028 S.3     
  14 C14            2.2835     0.3656    -0.0178 C.2     
  15 C15            1.2977    -0.5254    -0.0131 C.2     
  16 C16           -2.3137    -2.9490     2.0784 C.ar    
  17 C17           -2.2933    -3.4169     3.3766 C.ar    
  18 C18           -1.0752    -3.6182     4.0228 C.ar    
  19 C19            0.1162    -3.3455     3.3534 C.ar    
  20 C20            0.0840    -2.8829     2.0535 C.ar    
  21 C21           -1.0468    -4.1205     5.4186 C.ar    
  22 C22            0.1655    -4.3282     6.0823 C.ar    
  23 C23            0.1465    -4.7959     7.3802 C.ar    
  24 N24           -0.9946    -5.0464     7.9931 N.ar    
  25 C25           -2.1601    -4.8639     7.4026 C.ar    
  26 C26           -2.2319    -4.3933     6.1075 C.ar    
  27 H27           -3.2907    -0.7021     0.0297 H       
  28 H28           -2.0406    -2.5566    -0.5065 H       
  29 H29           -0.2615    -2.5035    -0.5235 H       
  30 H30           -4.7808     3.6606     0.0648 H       
  31 H31            3.3355     0.1218    -0.0295 H       
  32 H32            1.4869    -1.5886    -0.0210 H       
  33 H33           -3.2572    -2.7924     1.5767 H       
  34 H34           -3.2196    -3.6263     3.8909 H       
  35 H35            1.0631    -3.4997     3.8495 H       
  36 H36            1.0068    -2.6713     1.5337 H       
  37 H37            1.1034    -4.1259     5.5864 H       
  38 H38            1.0782    -4.9595     7.9013 H       
  39 H39           -3.0703    -5.0818     7.9415 H       
  40 H40           -3.1895    -4.2462     5.6303 H       
@<TRIPOS>BOND
   1    1    2 2
   2    1   13 1
   3    1    6 1
   4    2    3 1
   5    2   15 1
   6    3    4 1
   7    3    7 1
   8    4    5 2
   9    4   27 1
  10    5    6 1
  11    5   10 1
  12    6    9 2
  13    7    8 1
  14    7   28 1
  15    7   29 1
  16    8   16 ar
  17    8   20 ar
  18   10   11 2
  19   10   12 1
  20   12   30 1
  21   13   14 1
  22   14   15 2
  23   14   31 1
  24   15   32 1
  25   16   17 ar
  26   16   33 1
  27   17   18 ar
  28   17   34 1
  29   18   19 ar
  30   18   21 1
  31   19   20 ar
  32   19   35 1
  33   20   36 1
  34   21   22 ar
  35   21   26 ar
  36   22   23 ar
  37   22   37 1
  38   23   24 ar
  39   23   38 1
  40   24   25 ar
  41   25   26 ar
  42   25   39 1
  43   26   40 1

#	End of record

