#	Name: ASD02500423
#	Creating user name:	WinNT
#	Creation time:	15. 06. 2019 20:22

#	Modifying user name:	WinNT
#	Modification time:	15. 06. 2019 20:22

#	Program:	/corina/corina34_cracker 3.40 0067  02.08.2006

@<TRIPOS>MOLECULE
ASD02500423
  65   69    0    0    0
SMALL
NO_CHARGES


@<TRIPOS>ATOM
   1 N1             0.6315     4.0549    -0.7818 N.ar    
   2 C2             1.7425     3.8999    -0.1037 C.ar    
   3 C3             2.9065     3.4223    -0.7025 C.ar    
   4 C4             2.9079     3.1017    -2.0301 C.ar    
   5 C5             1.7128     3.2691    -2.7551 C.ar    
   6 C6             1.6380     2.9613    -4.1228 C.ar    
   7 C7             0.4635     3.1373    -4.7889 C.ar    
   8 C8            -0.6660     3.6197    -4.1313 C.ar    
   9 C9            -0.6289     3.9281    -2.8061 C.ar    
  10 C10            0.5652     3.7599    -2.0840 C.ar    
  11 S11           -2.0721     4.5370    -1.9992 S.o2    
  12 O12           -1.6676     5.6850    -1.2658 O.2     
  13 O13           -3.0994     4.5639    -2.9806 O.2     
  14 N14           -2.5237     3.4026    -0.8805 N.am    
  15 C15           -2.8725     2.1210    -1.2917 C.ar    
  16 C16           -2.3526     1.0130    -0.6282 C.ar    
  17 C17           -2.6959    -0.2567    -1.0328 C.ar    
  18 C18           -3.5675    -0.4333    -2.1114 C.ar    
  19 C19           -4.0878     0.6813    -2.7756 C.ar    
  20 C20           -3.7452     1.9485    -2.3626 C.ar    
  21 C21           -3.9372    -1.7931    -2.5480 C.2     
  22 O22           -5.0770    -2.0301    -2.8992 O.2     
  23 N23           -3.0116    -2.7727    -2.5577 N.am    
  24 C24           -3.3421    -4.1187    -3.0497 C.3     
  25 C25           -2.2882    -4.5319    -4.0825 C.3     
  26 N26           -0.9497    -4.3976    -3.4923 N.3     
  27 C27           -0.6571    -2.9999    -3.1477 C.3     
  28 C28           -1.6425    -2.5223    -2.0822 C.3     
  29 C29            0.0779    -4.9453    -4.3878 C.3     
  30 C30            1.4418    -4.7050    -3.7936 C.ar    
  31 C31            1.8790    -5.4742    -2.7248 C.ar    
  32 C32            3.1349    -5.2504    -2.1801 C.ar    
  33 C33            3.9473    -4.2627    -2.7028 C.ar    
  34 C34            3.5093    -3.4974    -3.7675 C.ar    
  35 C35            2.2601    -3.7226    -4.3163 C.ar    
  36 C36            4.3971    -2.4200    -4.3351 C.3     
  37 O37            1.0778    -6.4448    -2.2121 O.3     
  38 H38            1.7562     4.1493     0.9470 H       
  39 H39            3.8068     3.3060    -0.1175 H       
  40 H40            3.8011     2.7306    -2.5105 H       
  41 H41            2.5071     2.5873    -4.6436 H       
  42 H42            0.4069     2.9002    -5.8411 H       
  43 H43           -1.5857     3.7513    -4.6819 H       
  44 H44           -2.5449     3.6322     0.0617 H       
  45 H45           -1.6790     1.1501     0.2048 H       
  46 H46           -2.2920    -1.1159    -0.5179 H       
  47 H47           -4.7612     0.5481    -3.6094 H       
  48 H48           -4.1506     2.8100    -2.8723 H       
  49 H49           -3.3365    -4.8240    -2.2186 H       
  50 H50           -4.3271    -4.1064    -3.5164 H       
  51 H51           -2.4538    -5.5684    -4.3765 H       
  52 H52           -2.3656    -3.8881    -4.9587 H       
  53 H53            0.3603    -2.9254    -2.7637 H       
  54 H54           -0.7572    -2.3775    -4.0368 H       
  55 H55           -1.5042    -1.4550    -1.9096 H       
  56 H56           -1.4703    -3.0711    -1.1563 H       
  57 H57           -0.0811    -6.0166    -4.5110 H       
  58 H58            0.0129    -4.4543    -5.3587 H       
  59 H59            3.4772    -5.8476    -1.3479 H       
  60 H60            4.9253    -4.0881    -2.2791 H       
  61 H61            1.9221    -3.1266    -5.1511 H       
  62 H62            5.0169    -2.8399    -5.1274 H       
  63 H63            3.7808    -1.6184    -4.7421 H       
  64 H64            5.0358    -2.0225    -3.5463 H       
  65 H65            1.2473    -7.3259    -2.5727 H       
@<TRIPOS>BOND
   1    1    2 ar
   2    1   10 ar
   3    2    3 ar
   4    2   38 1
   5    3    4 ar
   6    3   39 1
   7    4    5 ar
   8    4   40 1
   9    5    6 ar
  10    5   10 ar
  11    6    7 ar
  12    6   41 1
  13    7    8 ar
  14    7   42 1
  15    8    9 ar
  16    8   43 1
  17    9   10 ar
  18    9   11 1
  19   11   12 2
  20   11   13 2
  21   11   14 am
  22   14   15 1
  23   14   44 1
  24   15   16 ar
  25   15   20 ar
  26   16   17 ar
  27   16   45 1
  28   17   18 ar
  29   17   46 1
  30   18   19 ar
  31   18   21 1
  32   19   20 ar
  33   19   47 1
  34   20   48 1
  35   21   22 2
  36   21   23 am
  37   23   24 1
  38   23   28 1
  39   24   25 1
  40   24   49 1
  41   24   50 1
  42   25   26 1
  43   25   51 1
  44   25   52 1
  45   26   27 1
  46   26   29 1
  47   27   28 1
  48   27   53 1
  49   27   54 1
  50   28   55 1
  51   28   56 1
  52   29   30 1
  53   29   57 1
  54   29   58 1
  55   30   31 ar
  56   30   35 ar
  57   31   32 ar
  58   31   37 1
  59   32   33 ar
  60   32   59 1
  61   33   34 ar
  62   33   60 1
  63   34   35 ar
  64   34   36 1
  65   35   61 1
  66   36   62 1
  67   36   63 1
  68   36   64 1
  69   37   65 1

#	End of record

