#	Name: ASD00842187
#	Creating user name:	WinNT
#	Creation time:	15. 06. 2019 18:43

#	Modifying user name:	WinNT
#	Modification time:	15. 06. 2019 18:43

#	Program:	/corina/corina34_cracker 3.40 0067  02.08.2006

@<TRIPOS>MOLECULE
ASD00842187
  95  100    0    0    0
SMALL
NO_CHARGES


@<TRIPOS>ATOM
   1 F1             6.0653    -1.6760    -2.0207 F       
   2 C2             0.9829     1.5422    -0.4527 C.ar    
   3 C3             1.2923     0.2082    -0.6735 C.ar    
   4 C4             1.2327    -0.6982     0.3754 C.ar    
   5 C5             0.8655    -0.2703     1.6363 C.ar    
   6 C6             0.5571     1.0601     1.8537 C.ar    
   7 C7             0.6162     1.9652     0.8105 C.ar    
   8 C8             1.5677    -2.1483     0.1389 C.3     
   9 C9             1.3097    -2.9626     1.3885 C.2     
  10 C10            0.7578    -2.6993    -1.0365 C.3     
  11 C11           -0.7105    -2.4701    -0.7860 C.2     
  12 N12           -1.6256    -2.9649    -1.6430 N.am    
  13 O13           -1.0687    -1.8404     0.1866 O.2     
  14 C14           -3.0520    -2.6548    -1.4762 C.3     
  15 C15           -3.8406    -3.9675    -1.4365 C.3     
  16 C16           -3.5181    -4.7897    -2.6863 C.3     
  17 C17           -2.0247    -5.1238    -2.7078 C.3     
  18 C18           -1.2149    -3.8196    -2.7653 C.3     
  19 N19           -4.2978    -6.0346    -2.6678 N.3     
  20 C20           -4.1042    -6.7958    -3.9099 C.3     
  21 C21           -4.8678    -8.1190    -3.8184 C.3     
  22 N22           -6.2931    -7.8443    -3.5893 N.3     
  23 C23           -6.4868    -7.0830    -2.3473 C.3     
  24 C24           -5.7232    -5.7598    -2.4388 C.3     
  25 C25           -7.0729    -9.0891    -3.5709 C.3     
  26 O26            0.2423    -3.1069     1.9462 O.2     
  27 N27            2.4841    -3.4961     1.7639 N.am    
  28 C28            3.0495    -2.3156    -0.1107 C.ar    
  29 C29            3.5264    -3.1367     0.9060 C.ar    
  30 C30            3.8920    -1.8280    -1.0853 C.ar    
  31 C31            5.2374    -2.1524    -1.0654 C.ar    
  32 C32            5.7346    -2.9766    -0.0508 C.ar    
  33 C33            4.8761    -3.4672     0.9327 C.ar    
  34 C34            2.4225    -6.1298     2.5604 C.ar    
  35 C35            1.1775    -6.5295     2.0973 C.ar    
  36 C36            3.4664    -7.0340     2.6000 C.ar    
  37 C37            3.2711    -8.3359     2.1782 C.ar    
  38 C38            2.0310    -8.7369     1.7161 C.ar    
  39 C39            0.9840    -7.8369     1.6750 C.ar    
  40 H40            1.8809    -9.7546     1.3872 H       
  41 O41            0.1490    -5.6421     2.0578 O.3     
  42 C42           -1.1047    -6.1235     1.5693 C.3     
  43 C43           -8.4940    -8.7936    -3.0870 C.3     
  44 C44           -9.3061   -10.0901    -3.0678 C.3     
  45 S45            2.6742    -4.4685     3.0908 S.o2    
  46 O46            4.0408    -4.3704     3.4677 O.2     
  47 O47            1.6014    -4.1612     3.9706 O.2     
  48 C48            7.1252    -3.3174    -0.0222 C.1     
  49 N49            8.2283    -3.5878     0.0005 N.1     
  50 O50            1.6529    -0.2104    -1.9152 O.3     
  51 C51            2.1196     0.1314    -4.2616 C.3     
  52 C52            1.5839     0.7516    -2.9696 C.3     
  53 H53            1.0330     2.2505    -1.2665 H       
  54 H54            0.8189    -0.9754     2.4530 H       
  55 H55            0.2696     1.3925     2.8402 H       
  56 H56            0.3749     3.0037     0.9828 H       
  57 H57            1.0540    -2.1888    -1.9528 H       
  58 H58            0.9465    -3.7680    -1.1385 H       
  59 H59           -3.2010    -2.1106    -0.5436 H       
  60 H60           -3.3945    -2.0480    -2.3145 H       
  61 H61           -3.5617    -4.5327    -0.5472 H       
  62 H62           -4.9083    -3.7498    -1.4097 H       
  63 H63           -3.7743    -4.2141    -3.5757 H       
  64 H64           -1.7629    -5.6781    -1.8065 H       
  65 H65           -1.8000    -5.7292    -3.5860 H       
  66 H66           -1.4088    -3.3104    -3.7093 H       
  67 H67           -0.1519    -4.0455    -2.6811 H       
  68 H68           -4.4797    -6.2168    -4.7536 H       
  69 H69           -3.0424    -6.9977    -4.0508 H       
  70 H70           -4.7493    -8.6724    -4.7500 H       
  71 H71           -4.4738    -8.7098    -2.9914 H       
  72 H72           -7.5486    -6.8812    -2.2063 H       
  73 H73           -6.1113    -7.6621    -1.5036 H       
  74 H74           -5.8417    -5.2064    -1.5072 H       
  75 H75           -6.1172    -5.1690    -3.2657 H       
  76 H76           -7.1113    -9.5087    -4.5761 H       
  77 H77           -6.6007    -9.8036    -2.8967 H       
  78 H78            3.5022    -1.1920    -1.8662 H       
  79 H79            5.2605    -4.1036     1.7160 H       
  80 H80            4.4359    -6.7233     2.9605 H       
  81 H81            4.0886    -9.0410     2.2093 H       
  82 H82            0.0154    -8.1507     1.3147 H       
  83 H83           -0.9839    -6.4776     0.5455 H       
  84 H84           -1.4494    -6.9435     2.1991 H       
  85 H85           -1.8370    -5.3164     1.5905 H       
  86 H86           -8.4556    -8.3740    -2.0817 H       
  87 H87           -8.9662    -8.0790    -3.7612 H       
  88 H88           -9.3445   -10.5097    -4.0730 H       
  89 H89           -8.8340   -10.8046    -2.3935 H       
  90 H90          -10.3185    -9.8796    -2.7230 H       
  91 H91            3.1251    -0.2529    -4.0905 H       
  92 H92            1.4665    -0.6846    -4.5710 H       
  93 H93            2.1487     0.8899    -5.0439 H       
  94 H94            0.5478     1.0570    -3.1155 H       
  95 H95            2.1857     1.6218    -2.7075 H       
@<TRIPOS>BOND
   1    1   31 1
   2    2    3 ar
   3    2    7 ar
   4    2   53 1
   5    3    4 ar
   6    3   50 1
   7    4    5 ar
   8    4    8 1
   9    5    6 ar
  10    5   54 1
  11    6    7 ar
  12    6   55 1
  13    7   56 1
  14    8    9 1
  15    8   10 1
  16    8   28 1
  17    9   26 2
  18    9   27 am
  19   10   11 1
  20   10   57 1
  21   10   58 1
  22   11   12 am
  23   11   13 2
  24   12   14 1
  25   12   18 1
  26   14   15 1
  27   14   59 1
  28   14   60 1
  29   15   16 1
  30   15   61 1
  31   15   62 1
  32   16   17 1
  33   16   19 1
  34   16   63 1
  35   17   18 1
  36   17   64 1
  37   17   65 1
  38   18   66 1
  39   18   67 1
  40   19   20 1
  41   19   24 1
  42   20   21 1
  43   20   68 1
  44   20   69 1
  45   21   22 1
  46   21   70 1
  47   21   71 1
  48   22   23 1
  49   22   25 1
  50   23   24 1
  51   23   72 1
  52   23   73 1
  53   24   74 1
  54   24   75 1
  55   25   43 1
  56   25   76 1
  57   25   77 1
  58   27   45 am
  59   27   29 1
  60   28   29 ar
  61   28   30 ar
  62   29   33 ar
  63   30   31 ar
  64   30   78 1
  65   31   32 ar
  66   32   33 ar
  67   32   48 1
  68   33   79 1
  69   34   35 ar
  70   34   36 ar
  71   34   45 1
  72   35   41 1
  73   35   39 ar
  74   36   37 ar
  75   36   80 1
  76   37   38 ar
  77   37   81 1
  78   38   39 ar
  79   38   40 1
  80   39   82 1
  81   41   42 1
  82   42   83 1
  83   42   84 1
  84   42   85 1
  85   43   44 1
  86   43   86 1
  87   43   87 1
  88   44   88 1
  89   44   89 1
  90   44   90 1
  91   45   46 2
  92   45   47 2
  93   48   49 3
  94   50   52 1
  95   51   52 1
  96   51   91 1
  97   51   92 1
  98   51   93 1
  99   52   94 1
 100   52   95 1

#	End of record

