#	Name: ASD01882270
#	Creating user name:	WinNT
#	Creation time:	15. 06. 2019 19:44

#	Modifying user name:	WinNT
#	Modification time:	15. 06. 2019 19:44

#	Program:	/corina/corina34_cracker 3.40 0067  02.08.2006

@<TRIPOS>MOLECULE
ASD01882270
  47   50    0    0    0
SMALL
NO_CHARGES


@<TRIPOS>ATOM
   1 C1            -0.0167     1.3793     0.0096 C.2     
   2 C2             0.0021    -0.0041     0.0020 C.2     
   3 C3            -1.2232    -0.7132     0.0104 C.2     
   4 C4            -2.3914    -0.0450     0.0252 C.2     
   5 N5            -2.4194     1.3214     0.0328 N.pl3   
   6 C6            -1.2555     2.0465     0.0309 C.2     
   7 C7            -3.4509     2.2223     0.0471 C.2     
   8 C8            -2.9029     3.4573     0.0482 C.2     
   9 N9            -1.5737     3.3346     0.0392 N.2     
  10 C10            1.2900    -0.7352    -0.0152 C.ar    
  11 Cl11           1.4676     2.2796     0.0003 Cl      
  12 C12           -4.9223     1.8969     0.0588 C.3     
  13 C13            1.7554    -1.3581     1.1429 C.ar    
  14 C14            2.9541    -2.0383     1.1242 C.ar    
  15 C15            3.7001    -2.1039    -0.0474 C.ar    
  16 C16            3.2396    -1.4839    -1.2036 C.ar    
  17 C17            2.0379    -0.8071    -1.1924 C.ar    
  18 N18            4.9132    -2.7929    -0.0627 N.pl3   
  19 C19            5.7003    -2.8629    -1.2963 C.3     
  20 C20            7.1759    -3.0857    -0.9507 C.3     
  21 Cl21           1.4628    -0.0334    -2.6362 Cl      
  22 C22            5.2060    -4.0319    -2.1538 C.3     
  23 C23            6.0844    -4.1459    -3.4025 C.3     
  24 O24            7.4474    -4.3206    -3.0102 O.3     
  25 C25            7.9782    -3.2361    -2.2458 C.3     
  26 C26           -5.4606     1.9173    -1.3732 C.3     
  27 F27           -4.7790     0.9671    -2.1412 F       
  28 F28           -6.8265     1.6152    -1.3623 F       
  29 F29           -5.2684     3.1882    -1.9256 F       
  30 H30           -1.2205    -1.7932     0.0046 H       
  31 H31           -3.3200    -0.5964     0.0307 H       
  32 H32           -3.4493     4.3888     0.0576 H       
  33 H33           -5.0720     0.9068     0.4892 H       
  34 H34           -5.4534     2.6373     0.6572 H       
  35 H35            1.1772    -1.3072     2.0536 H       
  36 H36            3.3145    -2.5206     2.0208 H       
  37 H37            3.8213    -1.5358    -2.1120 H       
  38 H38            5.2355    -3.2255     0.7435 H       
  39 H39            5.5924    -1.9309    -1.8510 H       
  40 H40            7.5510    -2.2315    -0.3870 H       
  41 H41            7.2772    -3.9910    -0.3522 H       
  42 H42            5.2675    -4.9564    -1.5797 H       
  43 H43            4.1724    -3.8545    -2.4506 H       
  44 H44            5.7641    -5.0026    -3.9954 H       
  45 H45            5.9910    -3.2369    -3.9968 H       
  46 H46            7.9095    -2.3153    -2.8250 H       
  47 H47            9.0221    -3.4375    -2.0054 H       
@<TRIPOS>BOND
   1    1    2 2
   2    1   11 1
   3    1    6 1
   4    2    3 1
   5    2   10 1
   6    3    4 2
   7    3   30 1
   8    4    5 1
   9    4   31 1
  10    5    6 1
  11    5    7 1
  12    6    9 2
  13    7    8 2
  14    7   12 1
  15    8    9 1
  16    8   32 1
  17   10   13 ar
  18   10   17 ar
  19   12   26 1
  20   12   33 1
  21   12   34 1
  22   13   14 ar
  23   13   35 1
  24   14   15 ar
  25   14   36 1
  26   15   16 ar
  27   15   18 1
  28   16   17 ar
  29   16   37 1
  30   17   21 1
  31   18   19 1
  32   18   38 1
  33   19   20 1
  34   19   22 1
  35   19   39 1
  36   20   25 1
  37   20   40 1
  38   20   41 1
  39   22   23 1
  40   22   42 1
  41   22   43 1
  42   23   24 1
  43   23   44 1
  44   23   45 1
  45   24   25 1
  46   25   46 1
  47   25   47 1
  48   26   27 1
  49   26   28 1
  50   26   29 1

#	End of record

