#	Name: ASD00310300
#	Creating user name:	WinNT
#	Creation time:	15. 06. 2019 18:34

#	Modifying user name:	WinNT
#	Modification time:	15. 06. 2019 18:34

#	Program:	/corina/corina34_cracker 3.40 0067  02.08.2006

@<TRIPOS>MOLECULE
ASD00310300
  43   45    0    0    0
SMALL
NO_CHARGES


@<TRIPOS>ATOM
   1 C1            -0.0188     1.5336     0.0105 C.3     
   2 C2             0.0021    -0.0041     0.0020 C.3     
   3 C3             1.3815     0.0967    -0.6702 C.3     
   4 C4             1.5179     1.4762    -0.0045 C.3     
   5 O5            -0.5818     2.1049    -1.1721 O.3     
   6 C6            -0.5886     2.1226     1.2751 C.ar    
   7 C7            -1.2408     3.3423     1.2346 C.ar    
   8 C8            -1.7644     3.8863     2.3894 C.ar    
   9 C9            -1.6357     3.2046     3.5984 C.ar    
  10 C10           -0.9781     1.9760     3.6334 C.ar    
  11 C11           -0.4626     1.4391     2.4716 C.ar    
  12 O12           -2.1886     3.2593     6.2367 O.3     
  13 B13           -2.2289     3.8185     4.9160 Du      
  14 O14           -2.9295     5.0618     5.0633 O.3     
  15 C15           -2.4451     5.6088     6.3078 C.3     
  16 C16           -1.9428     4.3868     7.1034 C.3     
  17 C17           -2.7302     4.2388     8.4068 C.3     
  18 C18           -0.4467     4.5188     7.3950 C.3     
  19 C19           -1.2963     6.5857     6.0495 C.3     
  20 C20           -3.5798     6.3057     7.0613 C.3     
  21 H21            0.0329    -0.4458     0.9980 H       
  22 H22           -0.7629    -0.4476    -0.6353 H       
  23 H23            2.0998    -0.6373    -0.3050 H       
  24 H24            1.3349     0.1396    -1.7584 H       
  25 H25            1.9766     2.2276    -0.6471 H       
  26 H26            1.9632     1.4391     0.9897 H       
  27 H27           -0.5977     3.0718    -1.1727 H       
  28 H28           -1.3399     3.8696     0.2973 H       
  29 H29           -2.2726     4.8386     2.3567 H       
  30 H30           -0.8753     1.4438     4.5675 H       
  31 H31            0.0438     0.4856     2.4969 H       
  32 H32           -2.4035     3.3393     8.9286 H       
  33 H33           -2.5541     5.1095     9.0385 H       
  34 H34           -3.7940     4.1623     8.1820 H       
  35 H35            0.0969     4.6393     6.4579 H       
  36 H36           -0.2754     5.3888     8.0288 H       
  37 H37           -0.0956     3.6223     7.9060 H       
  38 H38           -1.6541     7.4138     5.4378 H       
  39 H39           -0.9252     6.9697     6.9997 H       
  40 H40           -0.4910     6.0694     5.5269 H       
  41 H41           -4.3819     5.5924     7.2510 H       
  42 H42           -3.2039     6.6904     8.0094 H       
  43 H43           -3.9620     7.1309     6.4604 H       
@<TRIPOS>BOND
   1    1    2 1
   2    1    4 1
   3    1    5 1
   4    1    6 1
   5    2    3 1
   6    2   21 1
   7    2   22 1
   8    3    4 1
   9    3   23 1
  10    3   24 1
  11    4   25 1
  12    4   26 1
  13    5   27 1
  14    6    7 ar
  15    6   11 ar
  16    7    8 ar
  17    7   28 1
  18    8    9 ar
  19    8   29 1
  20    9   10 ar
  21    9   13 1
  22   10   11 ar
  23   10   30 1
  24   11   31 1
  25   12   13 1
  26   12   16 1
  27   13   14 1
  28   14   15 1
  29   15   16 1
  30   15   19 1
  31   15   20 1
  32   16   17 1
  33   16   18 1
  34   17   32 1
  35   17   33 1
  36   17   34 1
  37   18   35 1
  38   18   36 1
  39   18   37 1
  40   19   38 1
  41   19   39 1
  42   19   40 1
  43   20   41 1
  44   20   42 1
  45   20   43 1

#	End of record

