#	Name: ASD04882462
#	Creating user name:	WinNT
#	Creation time:	15. 06. 2019 20:54

#	Modifying user name:	WinNT
#	Modification time:	15. 06. 2019 20:54

#	Program:	/corina/corina34_cracker 3.40 0067  02.08.2006

@<TRIPOS>MOLECULE
ASD04882462
  72   77    0    0    0
SMALL
NO_CHARGES


@<TRIPOS>ATOM
   1 C1            -0.0215     1.4012    -0.0092 C.ar    
   2 C2            -0.0115     0.0036    -0.0053 C.ar    
   3 C3            -1.2093    -0.7019    -0.0160 C.ar    
   4 C4            -2.4096    -0.0269    -0.0309 C.ar    
   5 C5            -2.4267     1.3707    -0.0349 C.ar    
   6 C6            -1.2239     2.0825    -0.0184 C.ar    
   7 N7             1.1998    -0.6830     0.0089 N.3     
   8 C8             1.3076    -1.5363     1.2005 C.3     
   9 C9             1.3717    -1.4731    -1.2183 C.3     
  10 C10            2.7456    -2.1473    -1.1994 C.3     
  11 N11            2.8534    -3.0005    -0.0078 N.3     
  12 C12            2.6815    -2.2105     1.2194 C.3     
  13 C13           -3.7126     2.0937    -0.0509 C.2     
  14 O14           -3.7265     3.3095    -0.0543 O.2     
  15 N15           -4.8720     1.4064    -0.0616 N.am    
  16 N16            1.1866     2.1110     0.0021 N.am    
  17 C17            4.0640    -3.6868     0.0064 C.ar    
  18 C18            4.0961    -5.0810     0.0105 C.ar    
  19 C19            5.3166    -5.7230     0.0247 C.ar    
  20 N20            6.4429    -5.0352     0.0347 N.ar    
  21 C21            6.4545    -3.7152     0.0312 C.ar    
  22 C22            5.2771    -2.9980     0.0110 C.ar    
  23 C23           -6.1489     2.1243    -0.0775 C.3     
  24 C24           -7.3003     1.1168    -0.0872 C.3     
  25 C25           -8.6139     1.8553    -0.1035 C.2     
  26 C26            1.2296     3.3599     0.5068 C.2     
  27 O27            0.2069     3.8985     0.8853 O.2     
  28 C28            2.5162     4.0732     0.6000 C.2     
  29 C29            2.7107     5.3300     1.0850 C.2     
  30 O30            4.0248     5.5879     0.9878 O.3     
  31 C31            4.6246     4.5140     0.4551 C.2     
  32 N32            3.7337     3.5970     0.2228 N.2     
  33 C33            2.8152    -5.8748     0.0001 C.3     
  34 C34            6.1000     4.3879     0.1751 C.3     
  35 C35            6.7244     5.3965    -0.7911 C.3     
  36 C36            7.0169     5.4908     0.7077 C.3     
  37 N37           -9.3601     2.1687    -1.2074 N.pl3   
  38 C38           -9.2820     2.3286     0.9656 C.2     
  39 N39          -10.4031     2.9194     0.5261 N.2     
  40 C40          -10.4566     2.8275    -0.7745 C.2     
  41 H41           -1.1986    -1.7819    -0.0129 H       
  42 H42           -3.3385    -0.5778    -0.0399 H       
  43 H43           -1.2340     3.1624    -0.0215 H       
  44 H44            1.1895    -0.9265     2.0963 H       
  45 H45            0.5288    -2.2984     1.1738 H       
  46 H46            0.5937    -2.2345    -1.2725 H       
  47 H47            1.3003    -0.8173    -2.0860 H       
  48 H48            2.8637    -2.7571    -2.0952 H       
  49 H49            3.5244    -1.3851    -1.1727 H       
  50 H50            3.4595    -1.4490     1.2736 H       
  51 H51            2.7529    -2.8663     2.0871 H       
  52 H52           -4.8609     0.4365    -0.0588 H       
  53 H53            1.9919     1.7035    -0.3534 H       
  54 H54            5.3511    -6.8025     0.0280 H       
  55 H55            7.3983    -3.1903     0.0398 H       
  56 H56            5.2936    -1.9182     0.0083 H       
  57 H57           -6.2235     2.7527     0.8101 H       
  58 H58           -6.2041     2.7479    -0.9698 H       
  59 H59           -7.2258     0.4884    -0.9747 H       
  60 H60           -7.2451     0.4933     0.8051 H       
  61 H61            1.9524     5.9935     1.4736 H       
  62 H62            2.5164    -6.0690    -1.0300 H       
  63 H63            2.9700    -6.8212     0.5181 H       
  64 H64            2.0325    -5.3082     0.5048 H       
  65 H65            6.4908     3.3704     0.1625 H       
  66 H66            7.5263     5.0427    -1.4391 H       
  67 H67            6.0681     6.1513    -1.2243 H       
  68 H68            6.5530     6.3076     1.2606 H       
  69 H69            8.0112     5.1990     1.0458 H       
  70 H70           -9.1421     1.9570    -2.1286 H       
  71 H71           -8.9701     2.2464     1.9963 H       
  72 H72          -11.2470     3.2139    -1.4009 H       
@<TRIPOS>BOND
   1    1    2 ar
   2    1   16 1
   3    1    6 ar
   4    2    3 ar
   5    2    7 1
   6    3    4 ar
   7    3   41 1
   8    4    5 ar
   9    4   42 1
  10    5    6 ar
  11    5   13 1
  12    6   43 1
  13    7    8 1
  14    7    9 1
  15    8   12 1
  16    8   44 1
  17    8   45 1
  18    9   10 1
  19    9   46 1
  20    9   47 1
  21   10   11 1
  22   10   48 1
  23   10   49 1
  24   11   12 1
  25   11   17 1
  26   12   50 1
  27   12   51 1
  28   13   14 2
  29   13   15 am
  30   15   23 1
  31   15   52 1
  32   16   26 am
  33   16   53 1
  34   17   18 ar
  35   17   22 ar
  36   18   19 ar
  37   18   33 1
  38   19   20 ar
  39   19   54 1
  40   20   21 ar
  41   21   22 ar
  42   21   55 1
  43   22   56 1
  44   23   24 1
  45   23   57 1
  46   23   58 1
  47   24   25 1
  48   24   59 1
  49   24   60 1
  50   25   37 1
  51   25   38 2
  52   26   28 1
  53   26   27 2
  54   28   29 2
  55   28   32 1
  56   29   30 1
  57   29   61 1
  58   30   31 1
  59   31   32 2
  60   31   34 1
  61   33   62 1
  62   33   63 1
  63   33   64 1
  64   34   35 1
  65   34   36 1
  66   34   65 1
  67   35   36 1
  68   35   66 1
  69   35   67 1
  70   36   68 1
  71   36   69 1
  72   37   40 1
  73   37   70 1
  74   38   39 1
  75   38   71 1
  76   39   40 2
  77   40   72 1

#	End of record

