#	Name: ASD01880965
#	Creating user name:	WinNT
#	Creation time:	15. 06. 2019 19:41

#	Modifying user name:	WinNT
#	Modification time:	15. 06. 2019 19:41

#	Program:	/corina/corina34_cracker 3.40 0067  02.08.2006

@<TRIPOS>MOLECULE
ASD01880965
  35   37    0    0    0
SMALL
NO_CHARGES


@<TRIPOS>ATOM
   1 N1            -0.0158     1.3148     0.0093 N.ar    
   2 C2             0.0021    -0.0041     0.0020 C.ar    
   3 N3             1.1336    -0.6825    -0.0120 N.ar    
   4 C4             2.2994    -0.0565    -0.0198 C.ar    
   5 C5             2.3212     1.3290    -0.0130 C.ar    
   6 C6             1.1122     2.0081     0.0022 C.ar    
   7 C7             3.6277     2.0801    -0.0209 C.3     
   8 O8             4.7120     1.1494    -0.0353 O.3     
   9 C9             5.9670     1.6658    -0.0440 C.ar    
  10 C10            7.0685     0.8150    -0.0582 C.ar    
  11 C11            8.3376     1.3373    -0.0674 C.ar    
  12 C12            8.5332     2.7227    -0.0627 C.ar    
  13 C13            7.4230     3.5739    -0.0484 C.ar    
  14 C14            6.1505     3.0426    -0.0445 C.ar    
  15 C15            9.7111     0.7138    -0.0835 C.3     
  16 N16           10.6663     1.8277    -0.0873 N.am    
  17 C17            9.9820     2.9845    -0.0752 C.2     
  18 O18           10.4878     4.0902    -0.0751 O.2     
  19 Cl19          -1.5026    -0.8699     0.0117 Cl      
  20 Cl20           7.6469     5.2953    -0.0418 Cl      
  21 I21            1.0711     4.1026     0.0132 I       
  22 C22           12.6195     1.6627    -1.5499 C.3     
  23 C23           12.1256     1.6999    -0.1023 C.3     
  24 H24            3.2219    -0.6181    -0.0309 H       
  25 H25            3.6786     2.7111    -0.9082 H       
  26 H26            3.6946     2.7021     0.8716 H       
  27 H27            6.9246    -0.2554    -0.0616 H       
  28 H28            5.2934     3.6996    -0.0339 H       
  29 H29            9.8545     0.1002     0.8059 H       
  30 H30            9.8374     0.1088    -0.9813 H       
  31 H31           13.7053     1.5676    -1.5610 H       
  32 H32           12.1748     0.8104    -2.0637 H       
  33 H33           12.3302     2.5835    -2.0563 H       
  34 H34           12.5703     2.5522     0.4115 H       
  35 H35           12.4149     0.7791     0.4041 H       
@<TRIPOS>BOND
   1    1    2 ar
   2    1    6 ar
   3    2    3 ar
   4    2   19 1
   5    3    4 ar
   6    4    5 ar
   7    4   24 1
   8    5    6 ar
   9    5    7 1
  10    6   21 1
  11    7    8 1
  12    7   25 1
  13    7   26 1
  14    8    9 1
  15    9   10 ar
  16    9   14 ar
  17   10   11 ar
  18   10   27 1
  19   11   12 ar
  20   11   15 1
  21   12   13 ar
  22   12   17 1
  23   13   14 ar
  24   13   20 1
  25   14   28 1
  26   15   16 1
  27   15   29 1
  28   15   30 1
  29   16   17 am
  30   16   23 1
  31   17   18 2
  32   22   23 1
  33   22   31 1
  34   22   32 1
  35   22   33 1
  36   23   34 1
  37   23   35 1

#	End of record

