#	Name: ASD01890483
#	Creating user name:	WinNT
#	Creation time:	15. 06. 2019 19:51

#	Modifying user name:	WinNT
#	Modification time:	15. 06. 2019 19:51

#	Program:	/corina/corina34_cracker 3.40 0067  02.08.2006

@<TRIPOS>MOLECULE
ASD01890483
  40   42    0    0    0
SMALL
NO_CHARGES


@<TRIPOS>ATOM
   1 C1            -0.0166     1.3753     0.0096 C.ar    
   2 C2             0.0021    -0.0041     0.0020 C.ar    
   3 C3            -1.1997    -0.7201     0.0096 C.ar    
   4 C4            -2.4030    -0.0103     0.0249 C.ar    
   5 C5            -2.4143     1.3621     0.0324 C.ar    
   6 C6            -1.2189     2.0622     0.0305 C.ar    
   7 N7            -1.4505    -2.0643     0.0048 N.2     
   8 C8            -2.6998    -2.3635     0.0152 C.2     
   9 C9            -3.4842    -1.0670     0.0296 C.3     
  10 C10           -3.2809    -3.7540     0.0137 C.3     
  11 C11           -2.1466    -4.7807    -0.0016 C.3     
  12 C12           -1.3475    -4.6773     1.2991 C.3     
  13 C13           -2.7251    -6.1666    -0.1269 C.ar    
  14 C14           -2.3871    -6.9614    -1.2062 C.ar    
  15 C15           -2.9174    -8.2326    -1.3217 C.ar    
  16 C16           -3.7866    -8.7094    -0.3568 C.ar    
  17 C17           -4.1246    -7.9135     0.7232 C.ar    
  18 C18           -3.5892    -6.6446     0.8405 C.ar    
  19 Cl19          -4.4535   -10.3057    -0.5014 Cl      
  20 Cl20           1.4788     2.2570     0.0001 Cl      
  21 C21           -0.1587    -5.6011     1.2331 C.2     
  22 N22            0.6939    -5.6776     2.2741 N.am    
  23 O23            0.0308    -6.2758     0.2433 O.2     
  24 O24            1.8109    -6.5456     2.2121 O.3     
  25 H25            0.9446    -0.5312    -0.0102 H       
  26 H26           -3.3535     1.8953     0.0439 H       
  27 H27           -1.2247     3.1421     0.0368 H       
  28 H28           -4.0901    -0.9938     0.9327 H       
  29 H29           -4.1072    -0.9841    -0.8609 H       
  30 H30           -3.8869    -3.8955     0.9085 H       
  31 H31           -3.9031    -3.8868    -0.8713 H       
  32 H32           -1.4893    -4.5834    -0.8484 H       
  33 H33           -1.0037    -3.6517     1.4337 H       
  34 H34           -1.9820    -4.9610     2.1388 H       
  35 H35           -1.7088    -6.5889    -1.9596 H       
  36 H36           -2.6535    -8.8533    -2.1652 H       
  37 H37           -4.8031    -8.2852     1.4768 H       
  38 H38           -3.8529    -6.0232     1.6835 H       
  39 H39            0.5423    -5.1380     3.0658 H       
  40 H40            2.3641    -6.5319     3.0051 H       
@<TRIPOS>BOND
   1    1    2 ar
   2    1   20 1
   3    1    6 ar
   4    2    3 ar
   5    2   25 1
   6    3    4 ar
   7    3    7 1
   8    4    5 ar
   9    4    9 1
  10    5    6 ar
  11    5   26 1
  12    6   27 1
  13    7    8 2
  14    8    9 1
  15    8   10 1
  16    9   28 1
  17    9   29 1
  18   10   11 1
  19   10   30 1
  20   10   31 1
  21   11   12 1
  22   11   13 1
  23   11   32 1
  24   12   21 1
  25   12   33 1
  26   12   34 1
  27   13   14 ar
  28   13   18 ar
  29   14   15 ar
  30   14   35 1
  31   15   16 ar
  32   15   36 1
  33   16   17 ar
  34   16   19 1
  35   17   18 ar
  36   17   37 1
  37   18   38 1
  38   21   22 am
  39   21   23 2
  40   22   24 1
  41   22   39 1
  42   24   40 1

#	End of record

