#	Name: ASD01148578
#	Creating user name:	WinNT
#	Creation time:	15. 06. 2019 19:02

#	Modifying user name:	WinNT
#	Modification time:	15. 06. 2019 19:02

#	Program:	/corina/corina34_cracker 3.40 0067  02.08.2006

@<TRIPOS>MOLECULE
ASD01148578
  49   52    0    0    0
SMALL
NO_CHARGES


@<TRIPOS>ATOM
   1 C1            -0.0169     1.4375    -0.0252 C.ar    
   2 C2             0.0192     0.0536    -0.0359 C.ar    
   3 C3            -1.1617    -0.6688    -0.0207 C.ar    
   4 C4            -2.3763    -0.0072     0.0050 C.ar    
   5 C5            -2.4112     1.3746     0.0152 C.ar    
   6 C6            -1.2326     2.0969     0.0064 C.ar    
   7 C7            -3.7351     2.0942     0.0423 C.3     
   8 O8            -4.7252     1.3265     0.7562 O.3     
   9 C9            -3.6503     3.3775     0.9025 C.3     
  10 C10           -4.1246     2.8962     2.2606 C.2     
  11 N11           -4.7070     1.7532     2.1041 N.2     
  12 C12           -3.9507     3.6086     3.5380 C.ar    
  13 C13           -4.4589     3.0283     4.7786 C.ar    
  14 C14           -3.2979     4.8330     3.5717 C.ar    
  15 C15           -3.1206     5.5238     4.7574 C.ar    
  16 C16           -3.5879     5.0223     5.9643 C.ar    
  17 C17           -4.2777     3.7348     5.9911 C.ar    
  18 C18           -3.3843     5.7811     7.2118 C.2     
  19 O19           -3.8864     5.3922     8.2489 O.2     
  20 N20           -2.6416     6.9057     7.2029 N.am    
  21 C21           -4.7654     3.1902     7.1858 C.ar    
  22 C22           -5.1183     1.7926     4.7928 C.ar    
  23 C23           -4.2096     2.4154    -1.3764 C.3     
  24 F24           -4.3426     1.2277    -2.1037 F       
  25 F25           -5.4459     3.0675    -1.3181 F       
  26 F26           -3.2741     3.2446    -2.0045 F       
  27 Cl27          -1.1182    -2.4042    -0.0347 Cl      
  28 Cl28           1.5442    -0.7753    -0.0688 Cl      
  29 Cl29           1.4629     2.3449    -0.0442 Cl      
  30 C30           -2.4393     7.6598     8.4425 C.3     
  31 C31           -5.5763     1.2874     5.9733 C.ar    
  32 C32           -5.4029     1.9853     7.1655 C.ar    
  33 C33           -1.5661     8.8835     8.1584 C.3     
  34 F34           -2.1993     9.6992     7.2145 F       
  35 F35           -1.3728     9.6036     9.3422 F       
  36 F36           -0.3276     8.4668     7.6586 F       
  37 H37           -3.2977    -0.5705     0.0168 H       
  38 H38           -1.2611     3.1765     0.0147 H       
  39 H39           -2.6236     3.7395     0.9573 H       
  40 H40           -4.3135     4.1495     0.5123 H       
  41 H41           -2.9198     5.2556     2.6526 H       
  42 H42           -2.6071     6.4738     4.7436 H       
  43 H43           -2.2411     7.2159     6.3757 H       
  44 H44           -4.6368     3.7213     8.1174 H       
  45 H45           -5.2633     1.2435     3.8741 H       
  46 H46           -3.4042     7.9845     8.8319 H       
  47 H47           -1.9459     7.0243     9.1779 H       
  48 H48           -6.0846     0.3345     5.9831 H       
  49 H49           -5.7785     1.5661     8.0873 H       
@<TRIPOS>BOND
   1    1    2 ar
   2    1   29 1
   3    1    6 ar
   4    2    3 ar
   5    2   28 1
   6    3    4 ar
   7    3   27 1
   8    4    5 ar
   9    4   37 1
  10    5    6 ar
  11    5    7 1
  12    6   38 1
  13    7    8 1
  14    7    9 1
  15    7   23 1
  16    8   11 1
  17    9   10 1
  18    9   39 1
  19    9   40 1
  20   10   11 2
  21   10   12 1
  22   12   13 ar
  23   12   14 ar
  24   13   22 ar
  25   13   17 ar
  26   14   15 ar
  27   14   41 1
  28   15   16 ar
  29   15   42 1
  30   16   17 ar
  31   16   18 1
  32   17   21 ar
  33   18   19 2
  34   18   20 am
  35   20   30 1
  36   20   43 1
  37   21   32 ar
  38   21   44 1
  39   22   31 ar
  40   22   45 1
  41   23   24 1
  42   23   25 1
  43   23   26 1
  44   30   33 1
  45   30   46 1
  46   30   47 1
  47   31   32 ar
  48   31   48 1
  49   32   49 1
  50   33   34 1
  51   33   35 1
  52   33   36 1

#	End of record

