#	Name: ASD02039008
#	Creating user name:	WinNT
#	Creation time:	15. 06. 2019 20:17

#	Modifying user name:	WinNT
#	Modification time:	15. 06. 2019 20:17

#	Program:	/corina/corina34_cracker 3.40 0067  02.08.2006

@<TRIPOS>MOLECULE
ASD02039008
  41   43    0    0    0
SMALL
NO_CHARGES


@<TRIPOS>ATOM
   1 N1             0.2506     1.7661    -1.2789 N.2     
   2 N2             0.1648     0.4845    -1.2063 N.2     
   3 C3             1.4753     2.1355    -0.9929 C.2     
   4 O4             2.1784     1.0181    -0.7305 O.3     
   5 C5             1.3208    -0.0110    -0.8740 C.2     
   6 N6             1.9560     3.4325    -0.9661 N.pl3   
   7 C7             1.0787     4.5070    -1.1423 C.ar    
   8 C8             1.6421    -1.4710    -0.6836 C.3     
   9 O9             2.0771    -2.0289    -1.9252 O.3     
  10 C10            2.4087    -3.3478    -1.9270 C.ar    
  11 C11            2.8388    -3.9527    -3.0987 C.ar    
  12 C12            2.3219    -4.0859    -0.7559 C.ar    
  13 C13            2.6589    -5.4253    -0.7568 C.ar    
  14 C14            3.0842    -6.0330    -1.9306 C.ar    
  15 C15            3.1758    -5.2921    -3.1014 C.ar    
  16 C16           -0.2335     4.4137    -0.6978 C.ar    
  17 C17            1.5201     5.6719    -1.7574 C.ar    
  18 C18            0.6522     6.7321    -1.9301 C.ar    
  19 C19           -0.6566     6.6355    -1.4912 C.ar    
  20 C20           -1.0984     5.4777    -0.8730 C.ar    
  21 Cl21          -1.7447     7.9703    -1.7101 Cl      
  22 N22            3.4259    -7.3901    -1.9324 N.am    
  23 S23            2.2379    -8.5431    -1.8918 S.o2    
  24 O24            2.9455    -9.7753    -1.8855 O.2     
  25 O25            1.4182    -8.1633    -0.7950 O.2     
  26 Cl26          -2.7409     5.3602    -0.3236 Cl      
  27 C27            1.3461    -8.3293    -3.4570 C.3     
  28 H28            2.9015     3.5965    -0.8250 H       
  29 H29            2.4336    -1.5750     0.0586 H       
  30 H30            0.7513    -1.9974    -0.3410 H       
  31 H31            2.9100    -3.3763    -4.0092 H       
  32 H32            1.9911    -3.6131     0.1570 H       
  33 H33            2.5919    -5.9997     0.1554 H       
  34 H34            3.5065    -5.7640    -4.0149 H       
  35 H35           -0.5781     3.5106    -0.2159 H       
  36 H36            2.5414     5.7485    -2.1000 H       
  37 H37            0.9954     7.6378    -2.4080 H       
  38 H38            4.3585    -7.6554    -1.9573 H       
  39 H39            2.0115    -8.5603    -4.2888 H       
  40 H40            0.4879    -9.0009    -3.4808 H       
  41 H41            1.0029    -7.2982    -3.5417 H       
@<TRIPOS>BOND
   1    1    2 1
   2    1    3 2
   3    2    5 2
   4    3    4 1
   5    3    6 1
   6    4    5 1
   7    5    8 1
   8    6    7 1
   9    6   28 1
  10    7   16 ar
  11    7   17 ar
  12    8    9 1
  13    8   29 1
  14    8   30 1
  15    9   10 1
  16   10   11 ar
  17   10   12 ar
  18   11   15 ar
  19   11   31 1
  20   12   13 ar
  21   12   32 1
  22   13   14 ar
  23   13   33 1
  24   14   15 ar
  25   14   22 1
  26   15   34 1
  27   16   20 ar
  28   16   35 1
  29   17   18 ar
  30   17   36 1
  31   18   19 ar
  32   18   37 1
  33   19   20 ar
  34   19   21 1
  35   20   26 1
  36   22   23 am
  37   22   38 1
  38   23   24 2
  39   23   25 2
  40   23   27 1
  41   27   39 1
  42   27   40 1
  43   27   41 1

#	End of record

