#	Name: ASD01881239
#	Creating user name:	WinNT
#	Creation time:	15. 06. 2019 19:42

#	Modifying user name:	WinNT
#	Modification time:	15. 06. 2019 19:42

#	Program:	/corina/corina34_cracker 3.40 0067  02.08.2006

@<TRIPOS>MOLECULE
ASD01881239
  54   57    0    0    0
SMALL
NO_CHARGES


@<TRIPOS>ATOM
   1 N1            -0.0158     1.3130     0.0093 N.ar    
   2 C2             0.0021    -0.0041     0.0020 C.ar    
   3 N3             1.1302    -0.6850    -0.0120 N.ar    
   4 C4             2.3048    -0.0610    -0.0198 C.ar    
   5 C5             2.3313     1.3279    -0.0131 C.ar    
   6 C6             1.1181     2.0110     0.0022 C.ar    
   7 C7             3.6395     2.0760    -0.0210 C.3     
   8 O8             4.0409     2.3193    -1.3708 O.3     
   9 C9             5.2072     2.9881    -1.5557 C.ar    
  10 C10            5.6566     3.2582    -2.8451 C.ar    
  11 C11            6.8359     3.9349    -3.0319 C.ar    
  12 C12            7.5920     4.3567    -1.9328 C.ar    
  13 C13            7.1363     4.0829    -0.6388 C.ar    
  14 C14            5.9480     3.4072    -0.4580 C.ar    
  15 C15            7.5885     4.3785    -4.2616 C.3     
  16 N16            8.7933     5.0635    -3.7793 N.am    
  17 C17            8.7908     5.0483    -2.4353 C.2     
  18 O18            9.6557     5.5368    -1.7339 O.2     
  19 Cl19           8.0619     4.5982     0.7365 Cl      
  20 N20            1.0911     3.3968     0.0090 N.pl3   
  21 C21           -0.1916     4.1044     0.0250 C.3     
  22 C22            0.0549     5.5911     0.0296 C.ar    
  23 C23            0.1561     6.2786    -1.1654 C.ar    
  24 C24            0.3822     7.6423    -1.1612 C.ar    
  25 C25            0.5068     8.3186     0.0380 C.ar    
  26 C26            0.4047     7.6313     1.2330 C.ar    
  27 C27            0.1742     6.2682     1.2288 C.ar    
  28 C28            9.4715     7.1264    -4.9043 C.3     
  29 C29            9.8282     5.6652    -4.6237 C.3     
  30 O30            3.4597    -0.7704    -0.0338 O.3     
  31 C31            3.3461    -2.1949    -0.0394 C.3     
  32 H32           -0.9348    -0.5413     0.0081 H       
  33 H33            3.5177     3.0264     0.4987 H       
  34 H34            4.4013     1.4812     0.4830 H       
  35 H35            5.0779     2.9351    -3.6978 H       
  36 H36            5.5959     3.1961     0.5410 H       
  37 H37            7.8652     3.5133    -4.8640 H       
  38 H38            6.9771     5.0642    -4.8481 H       
  39 H39            1.9215     3.8981     0.0031 H       
  40 H40           -0.7667     3.8342    -0.8606 H       
  41 H41           -0.7490     3.8258     0.9193 H       
  42 H42            0.0588     5.7503    -2.1023 H       
  43 H43            0.4620     8.1794    -2.0948 H       
  44 H44            0.6841     9.3839     0.0413 H       
  45 H45            0.5023     8.1596     2.1699 H       
  46 H46            0.0944     5.7312     2.1625 H       
  47 H47            8.5110     7.1738    -5.4174 H       
  48 H48            9.4080     7.6721    -3.9629 H       
  49 H49           10.2415     7.5741    -5.5326 H       
  50 H50           10.7887     5.6178    -4.1106 H       
  51 H51            9.8917     5.1195    -5.5651 H       
  52 H52            4.3416    -2.6387    -0.0507 H       
  53 H53            2.8132    -2.5204     0.8540 H       
  54 H54            2.7968    -2.5120    -0.9259 H       
@<TRIPOS>BOND
   1    1    2 ar
   2    1    6 ar
   3    2    3 ar
   4    2   32 1
   5    3    4 ar
   6    4    5 ar
   7    4   30 1
   8    5    6 ar
   9    5    7 1
  10    6   20 1
  11    7    8 1
  12    7   33 1
  13    7   34 1
  14    8    9 1
  15    9   10 ar
  16    9   14 ar
  17   10   11 ar
  18   10   35 1
  19   11   12 ar
  20   11   15 1
  21   12   13 ar
  22   12   17 1
  23   13   14 ar
  24   13   19 1
  25   14   36 1
  26   15   16 1
  27   15   37 1
  28   15   38 1
  29   16   17 am
  30   16   29 1
  31   17   18 2
  32   20   21 1
  33   20   39 1
  34   21   22 1
  35   21   40 1
  36   21   41 1
  37   22   23 ar
  38   22   27 ar
  39   23   24 ar
  40   23   42 1
  41   24   25 ar
  42   24   43 1
  43   25   26 ar
  44   25   44 1
  45   26   27 ar
  46   26   45 1
  47   27   46 1
  48   28   29 1
  49   28   47 1
  50   28   48 1
  51   28   49 1
  52   29   50 1
  53   29   51 1
  54   30   31 1
  55   31   52 1
  56   31   53 1
  57   31   54 1

#	End of record

